file 140556247 1735936022                                       
version 2
run General-0-20250103-21:21:33-3617
attr configname General
attr datetime 20250103-21:21:33
attr experiment General
attr inifile omnetpp.ini
attr iterationvars ""
attr iterationvarsf ""
attr measurement ""
attr network artery.inet.World
attr processid 3617
attr repetition 0
attr replication #0
attr resultdir results
attr runnumber 0
attr seedset 0
param *.traci.core.version -1
param *.traci.launcher.typename "\"PosixLauncher\""
param *.traci.launcher.sumocfg "\"campus.sumocfg\""
param *.traci.launcher.sumo "\"sumo-gui\""
param *.node[*].wlan[*].typename "\"VanetNic\""
param *.node[*].wlan[*].radio.channelNumber 180
param *.node[*].wlan[*].radio.carrierFrequency "5.9 GHz"
param *.node[*].wlan[*].transmitter.power "200 mW"
param *.node[*].middleware.updateInterval 0.1s
param *.node[*].middleware.datetime "\"2013-06-01 12:35:00\""
param *.node[*].middleware.services "xmldoc(\"services.xml\")"
param **.tictoc.*.host[*].mobility.typename "\"TraCIMobility\""
param **.tictoc.*.host[*].mobility.moduleType "xmldoc(\"services.xml\")"
param *.node[*].visualization true
param *.host[*].application.packetSentSignal true
param *.host[*].application.packetReceivedSignal true
param *.host[*].application.logSentMessages true
param *.host[*].application.logReceivedMessages true
param *.host[*].wlan[*].mac.recordScalar true
param *.host[*].application.recordScalar true
param *.host[*].wlan[*].mac.delaySignal true
param *.host[0..N].*.connectionManager.debug true
param *.host[0..N].*.networkLayer.debug true
param *.host[0..N].*.application.debug true
param *.host[0..N].*.application.logSentMessages true
param *.host[0..N].*.application.logReceivedMessages true

vector 0 World.node[0] posX:vector ETV
attr source xCoord(mobilityPos(mobilityStateChanged))
vector 1 World.node[0] posY:vector ETV
attr source yCoord(mobilityPos(mobilityStateChanged))
vector 2 World.node[0].wlan[0].radio radioMode:vector ETV
attr interpolationmode sample-hold
attr source radioModeChanged
attr title "Radio mode, vector"
vector 3 World.node[0].wlan[0].radio radioChannel:vector ETV
attr interpolationmode sample-hold
attr source radioChannelChanged
attr title "Radio channel, vector"
vector 4 World.node[0].wlan[0].radio receptionState:vector ETV
attr interpolationmode sample-hold
attr source receptionStateChanged
attr title "Radio reception state, vector"
vector 5 World.node[0].wlan[0].mac.dcf.channelAccess.contention state:vector ETV
attr interpolationmode none
attr source stateChanged
attr title "contention state, vector"
vector 6 World.node[0].wlan[0].mac.hcf.edca.edcaf[0].contention state:vector ETV
attr interpolationmode none
attr source stateChanged
attr title "contention state, vector"
vector 7 World.node[0].wlan[0].mac.hcf.edca.edcaf[1].contention state:vector ETV
attr interpolationmode none
attr source stateChanged
attr title "contention state, vector"
vector 8 World.node[0].wlan[0].mac.hcf.edca.edcaf[2].contention state:vector ETV
attr interpolationmode none
attr source stateChanged
attr title "contention state, vector"
vector 9 World.node[0].wlan[0].mac.hcf.edca.edcaf[3].contention state:vector ETV
attr interpolationmode none
attr source stateChanged
attr title "contention state, vector"
vector 10 World.node[0].wlan[0].mac rcvdPkFromHL:vector(packetBytes) ETV
attr interpolationmode none
attr source packetReceivedFromUpper
attr title "packets received from higher layer, vector(packetBytes)"
vector 11 World.node[0].wlan[0].mac sentDownPk:vector(packetBytes) ETV
attr interpolationmode none
attr source packetSentToLower
attr title "packets sent to lower layer, vector(packetBytes)"
vector 12 World.node[0].wlan[0].radio transmissionState:vector ETV
attr interpolationmode sample-hold
attr source transmissionStateChanged
attr title "Radio transmission state, vector"
vector 13 World.node[1] posX:vector ETV
attr source xCoord(mobilityPos(mobilityStateChanged))
vector 14 World.node[1] posY:vector ETV
attr source yCoord(mobilityPos(mobilityStateChanged))
vector 15 World.node[1].wlan[0].radio radioMode:vector ETV
attr interpolationmode sample-hold
attr source radioModeChanged
attr title "Radio mode, vector"
vector 16 World.node[1].wlan[0].radio radioChannel:vector ETV
attr interpolationmode sample-hold
attr source radioChannelChanged
attr title "Radio channel, vector"
vector 17 World.node[1].wlan[0].radio receptionState:vector ETV
attr interpolationmode sample-hold
attr source receptionStateChanged
attr title "Radio reception state, vector"
vector 18 World.node[1].wlan[0].mac.dcf.channelAccess.contention state:vector ETV
attr interpolationmode none
attr source stateChanged
attr title "contention state, vector"
vector 19 World.node[1].wlan[0].mac.hcf.edca.edcaf[0].contention state:vector ETV
attr interpolationmode none
attr source stateChanged
attr title "contention state, vector"
vector 20 World.node[1].wlan[0].mac.hcf.edca.edcaf[1].contention state:vector ETV
attr interpolationmode none
attr source stateChanged
attr title "contention state, vector"
vector 21 World.node[1].wlan[0].mac.hcf.edca.edcaf[2].contention state:vector ETV
attr interpolationmode none
attr source stateChanged
attr title "contention state, vector"
vector 22 World.node[1].wlan[0].mac.hcf.edca.edcaf[3].contention state:vector ETV
attr interpolationmode none
attr source stateChanged
attr title "contention state, vector"
vector 23 World.node[1].wlan[0].mac rcvdPkFromHL:vector(packetBytes) ETV
attr interpolationmode none
attr source packetReceivedFromUpper
attr title "packets received from higher layer, vector(packetBytes)"
vector 24 World.node[1].wlan[0].mac sentDownPk:vector(packetBytes) ETV
attr interpolationmode none
attr source packetSentToLower
attr title "packets sent to lower layer, vector(packetBytes)"
vector 25 World.node[1].wlan[0].radio transmissionState:vector ETV
attr interpolationmode sample-hold
attr source transmissionStateChanged
attr title "Radio transmission state, vector"
vector 26 World.node[2] posX:vector ETV
attr source xCoord(mobilityPos(mobilityStateChanged))
vector 27 World.node[2] posY:vector ETV
attr source yCoord(mobilityPos(mobilityStateChanged))
vector 28 World.node[2].wlan[0].radio radioMode:vector ETV
attr interpolationmode sample-hold
attr source radioModeChanged
attr title "Radio mode, vector"
vector 29 World.node[2].wlan[0].radio radioChannel:vector ETV
attr interpolationmode sample-hold
attr source radioChannelChanged
attr title "Radio channel, vector"
vector 30 World.node[2].wlan[0].radio receptionState:vector ETV
attr interpolationmode sample-hold
attr source receptionStateChanged
attr title "Radio reception state, vector"
vector 31 World.node[2].wlan[0].mac.dcf.channelAccess.contention state:vector ETV
attr interpolationmode none
attr source stateChanged
attr title "contention state, vector"
vector 32 World.node[2].wlan[0].mac.hcf.edca.edcaf[0].contention state:vector ETV
attr interpolationmode none
attr source stateChanged
attr title "contention state, vector"
vector 33 World.node[2].wlan[0].mac.hcf.edca.edcaf[1].contention state:vector ETV
attr interpolationmode none
attr source stateChanged
attr title "contention state, vector"
vector 34 World.node[2].wlan[0].mac.hcf.edca.edcaf[2].contention state:vector ETV
attr interpolationmode none
attr source stateChanged
attr title "contention state, vector"
vector 35 World.node[2].wlan[0].mac.hcf.edca.edcaf[3].contention state:vector ETV
attr interpolationmode none
attr source stateChanged
attr title "contention state, vector"
vector 36 World.node[2].wlan[0].mac rcvdPkFromHL:vector(packetBytes) ETV
attr interpolationmode none
attr source packetReceivedFromUpper
attr title "packets received from higher layer, vector(packetBytes)"
vector 37 World.node[2].wlan[0].mac sentDownPk:vector(packetBytes) ETV
attr interpolationmode none
attr source packetSentToLower
attr title "packets sent to lower layer, vector(packetBytes)"
vector 38 World.node[2].wlan[0].radio transmissionState:vector ETV
attr interpolationmode sample-hold
attr source transmissionStateChanged
attr title "Radio transmission state, vector"
vector 39 World.node[3] posX:vector ETV
attr source xCoord(mobilityPos(mobilityStateChanged))
vector 40 World.node[3] posY:vector ETV
attr source yCoord(mobilityPos(mobilityStateChanged))
vector 41 World.node[3].wlan[0].radio radioMode:vector ETV
attr interpolationmode sample-hold
attr source radioModeChanged
attr title "Radio mode, vector"
vector 42 World.node[3].wlan[0].radio radioChannel:vector ETV
attr interpolationmode sample-hold
attr source radioChannelChanged
attr title "Radio channel, vector"
vector 43 World.node[3].wlan[0].radio receptionState:vector ETV
attr interpolationmode sample-hold
attr source receptionStateChanged
attr title "Radio reception state, vector"
vector 44 World.node[3].wlan[0].mac.dcf.channelAccess.contention state:vector ETV
attr interpolationmode none
attr source stateChanged
attr title "contention state, vector"
vector 45 World.node[3].wlan[0].mac.hcf.edca.edcaf[0].contention state:vector ETV
attr interpolationmode none
attr source stateChanged
attr title "contention state, vector"
vector 46 World.node[3].wlan[0].mac.hcf.edca.edcaf[1].contention state:vector ETV
attr interpolationmode none
attr source stateChanged
attr title "contention state, vector"
vector 47 World.node[3].wlan[0].mac.hcf.edca.edcaf[2].contention state:vector ETV
attr interpolationmode none
attr source stateChanged
attr title "contention state, vector"
vector 48 World.node[3].wlan[0].mac.hcf.edca.edcaf[3].contention state:vector ETV
attr interpolationmode none
attr source stateChanged
attr title "contention state, vector"
vector 49 World.node[4] posX:vector ETV
attr source xCoord(mobilityPos(mobilityStateChanged))
vector 50 World.node[4] posY:vector ETV
attr source yCoord(mobilityPos(mobilityStateChanged))
vector 51 World.node[4].wlan[0].radio radioMode:vector ETV
attr interpolationmode sample-hold
attr source radioModeChanged
attr title "Radio mode, vector"
vector 52 World.node[4].wlan[0].radio radioChannel:vector ETV
attr interpolationmode sample-hold
attr source radioChannelChanged
attr title "Radio channel, vector"
vector 53 World.node[4].wlan[0].radio receptionState:vector ETV
attr interpolationmode sample-hold
attr source receptionStateChanged
attr title "Radio reception state, vector"
vector 54 World.node[4].wlan[0].mac.dcf.channelAccess.contention state:vector ETV
attr interpolationmode none
attr source stateChanged
attr title "contention state, vector"
vector 55 World.node[4].wlan[0].mac.hcf.edca.edcaf[0].contention state:vector ETV
attr interpolationmode none
attr source stateChanged
attr title "contention state, vector"
vector 56 World.node[4].wlan[0].mac.hcf.edca.edcaf[1].contention state:vector ETV
attr interpolationmode none
attr source stateChanged
attr title "contention state, vector"
vector 57 World.node[4].wlan[0].mac.hcf.edca.edcaf[2].contention state:vector ETV
attr interpolationmode none
attr source stateChanged
attr title "contention state, vector"
vector 58 World.node[4].wlan[0].mac.hcf.edca.edcaf[3].contention state:vector ETV
attr interpolationmode none
attr source stateChanged
attr title "contention state, vector"
vector 59 World.node[3].wlan[0].mac rcvdPkFromLL:vector(packetBytes) ETV
attr interpolationmode none
attr source packetReceivedFromLower
attr title "packets received from lower layer, vector(packetBytes)"
vector 60 World.node[3].wlan[0].mac passedUpPk:vector(packetBytes) ETV
attr interpolationmode none
attr source packetSentToUpper
attr title "packets passed to higher layer, vector(packetBytes)"
vector 61 World.node[4].wlan[0].mac rcvdPkFromHL:vector(packetBytes) ETV
attr interpolationmode none
attr source packetReceivedFromUpper
attr title "packets received from higher layer, vector(packetBytes)"
vector 62 World.node[4].wlan[0].mac sentDownPk:vector(packetBytes) ETV
attr interpolationmode none
attr source packetSentToLower
attr title "packets sent to lower layer, vector(packetBytes)"
vector 63 World.node[4].wlan[0].radio transmissionState:vector ETV
attr interpolationmode sample-hold
attr source transmissionStateChanged
attr title "Radio transmission state, vector"
vector 64 World.node[3].wlan[0].mac rcvdPkFromHL:vector(packetBytes) ETV
attr interpolationmode none
attr source packetReceivedFromUpper
attr title "packets received from higher layer, vector(packetBytes)"
vector 65 World.node[3].wlan[0].mac sentDownPk:vector(packetBytes) ETV
attr interpolationmode none
attr source packetSentToLower
attr title "packets sent to lower layer, vector(packetBytes)"
vector 66 World.node[3].wlan[0].radio transmissionState:vector ETV
attr interpolationmode sample-hold
attr source transmissionStateChanged
attr title "Radio transmission state, vector"
vector 67 World.node[0].wlan[0].mac rcvdPkFromLL:vector(packetBytes) ETV
attr interpolationmode none
attr source packetReceivedFromLower
attr title "packets received from lower layer, vector(packetBytes)"
vector 68 World.node[0].wlan[0].mac passedUpPk:vector(packetBytes) ETV
attr interpolationmode none
attr source packetSentToUpper
attr title "packets passed to higher layer, vector(packetBytes)"
vector 69 World.node[5] posX:vector ETV
attr source xCoord(mobilityPos(mobilityStateChanged))
vector 70 World.node[5] posY:vector ETV
attr source yCoord(mobilityPos(mobilityStateChanged))
vector 71 World.node[5].wlan[0].radio radioMode:vector ETV
attr interpolationmode sample-hold
attr source radioModeChanged
attr title "Radio mode, vector"
vector 72 World.node[5].wlan[0].radio radioChannel:vector ETV
attr interpolationmode sample-hold
attr source radioChannelChanged
attr title "Radio channel, vector"
vector 73 World.node[5].wlan[0].radio receptionState:vector ETV
attr interpolationmode sample-hold
attr source receptionStateChanged
attr title "Radio reception state, vector"
vector 74 World.node[5].wlan[0].mac.dcf.channelAccess.contention state:vector ETV
attr interpolationmode none
attr source stateChanged
attr title "contention state, vector"
vector 75 World.node[5].wlan[0].mac.hcf.edca.edcaf[0].contention state:vector ETV
attr interpolationmode none
attr source stateChanged
attr title "contention state, vector"
vector 76 World.node[5].wlan[0].mac.hcf.edca.edcaf[1].contention state:vector ETV
attr interpolationmode none
attr source stateChanged
attr title "contention state, vector"
vector 77 World.node[5].wlan[0].mac.hcf.edca.edcaf[2].contention state:vector ETV
attr interpolationmode none
attr source stateChanged
attr title "contention state, vector"
vector 78 World.node[5].wlan[0].mac.hcf.edca.edcaf[3].contention state:vector ETV
attr interpolationmode none
attr source stateChanged
attr title "contention state, vector"
vector 79 World.node[6] posX:vector ETV
attr source xCoord(mobilityPos(mobilityStateChanged))
vector 80 World.node[6] posY:vector ETV
attr source yCoord(mobilityPos(mobilityStateChanged))
vector 81 World.node[6].wlan[0].radio radioMode:vector ETV
attr interpolationmode sample-hold
attr source radioModeChanged
attr title "Radio mode, vector"
vector 82 World.node[6].wlan[0].radio radioChannel:vector ETV
attr interpolationmode sample-hold
attr source radioChannelChanged
attr title "Radio channel, vector"
vector 83 World.node[6].wlan[0].radio receptionState:vector ETV
attr interpolationmode sample-hold
attr source receptionStateChanged
attr title "Radio reception state, vector"
vector 84 World.node[6].wlan[0].mac.dcf.channelAccess.contention state:vector ETV
attr interpolationmode none
attr source stateChanged
attr title "contention state, vector"
vector 85 World.node[6].wlan[0].mac.hcf.edca.edcaf[0].contention state:vector ETV
attr interpolationmode none
attr source stateChanged
attr title "contention state, vector"
vector 86 World.node[6].wlan[0].mac.hcf.edca.edcaf[1].contention state:vector ETV
attr interpolationmode none
attr source stateChanged
attr title "contention state, vector"
vector 87 World.node[6].wlan[0].mac.hcf.edca.edcaf[2].contention state:vector ETV
attr interpolationmode none
attr source stateChanged
attr title "contention state, vector"
vector 88 World.node[6].wlan[0].mac.hcf.edca.edcaf[3].contention state:vector ETV
attr interpolationmode none
attr source stateChanged
attr title "contention state, vector"
vector 89 World.node[5].wlan[0].mac rcvdPkFromLL:vector(packetBytes) ETV
attr interpolationmode none
attr source packetReceivedFromLower
attr title "packets received from lower layer, vector(packetBytes)"
vector 90 World.node[5].wlan[0].mac passedUpPk:vector(packetBytes) ETV
attr interpolationmode none
attr source packetSentToUpper
attr title "packets passed to higher layer, vector(packetBytes)"
vector 91 World.node[6].wlan[0].mac rcvdPkFromLL:vector(packetBytes) ETV
attr interpolationmode none
attr source packetReceivedFromLower
attr title "packets received from lower layer, vector(packetBytes)"
vector 92 World.node[6].wlan[0].mac passedUpPk:vector(packetBytes) ETV
attr interpolationmode none
attr source packetSentToUpper
attr title "packets passed to higher layer, vector(packetBytes)"
vector 93 World.node[5].wlan[0].mac rcvdPkFromHL:vector(packetBytes) ETV
attr interpolationmode none
attr source packetReceivedFromUpper
attr title "packets received from higher layer, vector(packetBytes)"
vector 94 World.node[5].wlan[0].mac sentDownPk:vector(packetBytes) ETV
attr interpolationmode none
attr source packetSentToLower
attr title "packets sent to lower layer, vector(packetBytes)"
vector 95 World.node[5].wlan[0].radio transmissionState:vector ETV
attr interpolationmode sample-hold
attr source transmissionStateChanged
attr title "Radio transmission state, vector"
vector 96 World.node[1].wlan[0].mac rcvdPkFromLL:vector(packetBytes) ETV
attr interpolationmode none
attr source packetReceivedFromLower
attr title "packets received from lower layer, vector(packetBytes)"
vector 97 World.node[1].wlan[0].mac passedUpPk:vector(packetBytes) ETV
attr interpolationmode none
attr source packetSentToUpper
attr title "packets passed to higher layer, vector(packetBytes)"
vector 98 World.node[6].wlan[0].mac rcvdPkFromHL:vector(packetBytes) ETV
attr interpolationmode none
attr source packetReceivedFromUpper
attr title "packets received from higher layer, vector(packetBytes)"
vector 99 World.node[6].wlan[0].mac sentDownPk:vector(packetBytes) ETV
attr interpolationmode none
attr source packetSentToLower
attr title "packets sent to lower layer, vector(packetBytes)"
vector 100 World.node[6].wlan[0].radio transmissionState:vector ETV
attr interpolationmode sample-hold
attr source transmissionStateChanged
attr title "Radio transmission state, vector"
vector 101 World.node[7] posX:vector ETV
attr source xCoord(mobilityPos(mobilityStateChanged))
vector 102 World.node[7] posY:vector ETV
attr source yCoord(mobilityPos(mobilityStateChanged))
vector 103 World.node[7].wlan[0].radio radioMode:vector ETV
attr interpolationmode sample-hold
attr source radioModeChanged
attr title "Radio mode, vector"
vector 104 World.node[7].wlan[0].radio radioChannel:vector ETV
attr interpolationmode sample-hold
attr source radioChannelChanged
attr title "Radio channel, vector"
vector 105 World.node[7].wlan[0].radio receptionState:vector ETV
attr interpolationmode sample-hold
attr source receptionStateChanged
attr title "Radio reception state, vector"
vector 106 World.node[7].wlan[0].mac.dcf.channelAccess.contention state:vector ETV
attr interpolationmode none
attr source stateChanged
attr title "contention state, vector"
vector 107 World.node[7].wlan[0].mac.hcf.edca.edcaf[0].contention state:vector ETV
attr interpolationmode none
attr source stateChanged
attr title "contention state, vector"
vector 108 World.node[7].wlan[0].mac.hcf.edca.edcaf[1].contention state:vector ETV
attr interpolationmode none
attr source stateChanged
attr title "contention state, vector"
vector 109 World.node[7].wlan[0].mac.hcf.edca.edcaf[2].contention state:vector ETV
attr interpolationmode none
attr source stateChanged
attr title "contention state, vector"
vector 110 World.node[7].wlan[0].mac.hcf.edca.edcaf[3].contention state:vector ETV
attr interpolationmode none
attr source stateChanged
attr title "contention state, vector"
vector 111 World.node[8] posX:vector ETV
attr source xCoord(mobilityPos(mobilityStateChanged))
vector 112 World.node[8] posY:vector ETV
attr source yCoord(mobilityPos(mobilityStateChanged))
vector 113 World.node[8].wlan[0].radio radioMode:vector ETV
attr interpolationmode sample-hold
attr source radioModeChanged
attr title "Radio mode, vector"
vector 114 World.node[8].wlan[0].radio radioChannel:vector ETV
attr interpolationmode sample-hold
attr source radioChannelChanged
attr title "Radio channel, vector"
vector 115 World.node[8].wlan[0].radio receptionState:vector ETV
attr interpolationmode sample-hold
attr source receptionStateChanged
attr title "Radio reception state, vector"
vector 116 World.node[8].wlan[0].mac.dcf.channelAccess.contention state:vector ETV
attr interpolationmode none
attr source stateChanged
attr title "contention state, vector"
vector 117 World.node[8].wlan[0].mac.hcf.edca.edcaf[0].contention state:vector ETV
attr interpolationmode none
attr source stateChanged
attr title "contention state, vector"
vector 118 World.node[8].wlan[0].mac.hcf.edca.edcaf[1].contention state:vector ETV
attr interpolationmode none
attr source stateChanged
attr title "contention state, vector"
vector 119 World.node[8].wlan[0].mac.hcf.edca.edcaf[2].contention state:vector ETV
attr interpolationmode none
attr source stateChanged
attr title "contention state, vector"
vector 120 World.node[8].wlan[0].mac.hcf.edca.edcaf[3].contention state:vector ETV
attr interpolationmode none
attr source stateChanged
attr title "contention state, vector"
vector 121 World.node[7].wlan[0].mac rcvdPkFromLL:vector(packetBytes) ETV
attr interpolationmode none
attr source packetReceivedFromLower
attr title "packets received from lower layer, vector(packetBytes)"
vector 122 World.node[7].wlan[0].mac passedUpPk:vector(packetBytes) ETV
attr interpolationmode none
attr source packetSentToUpper
attr title "packets passed to higher layer, vector(packetBytes)"
vector 123 World.node[7].wlan[0].mac rcvdPkFromHL:vector(packetBytes) ETV
attr interpolationmode none
attr source packetReceivedFromUpper
attr title "packets received from higher layer, vector(packetBytes)"
vector 124 World.node[7].wlan[0].mac sentDownPk:vector(packetBytes) ETV
attr interpolationmode none
attr source packetSentToLower
attr title "packets sent to lower layer, vector(packetBytes)"
vector 125 World.node[7].wlan[0].radio transmissionState:vector ETV
attr interpolationmode sample-hold
attr source transmissionStateChanged
attr title "Radio transmission state, vector"
vector 126 World.node[2].wlan[0].mac rcvdPkFromLL:vector(packetBytes) ETV
attr interpolationmode none
attr source packetReceivedFromLower
attr title "packets received from lower layer, vector(packetBytes)"
vector 127 World.node[2].wlan[0].mac passedUpPk:vector(packetBytes) ETV
attr interpolationmode none
attr source packetSentToUpper
attr title "packets passed to higher layer, vector(packetBytes)"
vector 128 World.node[8].wlan[0].mac rcvdPkFromHL:vector(packetBytes) ETV
attr interpolationmode none
attr source packetReceivedFromUpper
attr title "packets received from higher layer, vector(packetBytes)"
vector 129 World.node[8].wlan[0].mac sentDownPk:vector(packetBytes) ETV
attr interpolationmode none
attr source packetSentToLower
attr title "packets sent to lower layer, vector(packetBytes)"
vector 130 World.node[8].wlan[0].radio transmissionState:vector ETV
attr interpolationmode sample-hold
attr source transmissionStateChanged
attr title "Radio transmission state, vector"
vector 131 World.node[9] posX:vector ETV
attr source xCoord(mobilityPos(mobilityStateChanged))
vector 132 World.node[9] posY:vector ETV
attr source yCoord(mobilityPos(mobilityStateChanged))
vector 133 World.node[9].wlan[0].radio radioMode:vector ETV
attr interpolationmode sample-hold
attr source radioModeChanged
attr title "Radio mode, vector"
vector 134 World.node[9].wlan[0].radio radioChannel:vector ETV
attr interpolationmode sample-hold
attr source radioChannelChanged
attr title "Radio channel, vector"
vector 135 World.node[9].wlan[0].radio receptionState:vector ETV
attr interpolationmode sample-hold
attr source receptionStateChanged
attr title "Radio reception state, vector"
vector 136 World.node[9].wlan[0].mac.dcf.channelAccess.contention state:vector ETV
attr interpolationmode none
attr source stateChanged
attr title "contention state, vector"
vector 137 World.node[9].wlan[0].mac.hcf.edca.edcaf[0].contention state:vector ETV
attr interpolationmode none
attr source stateChanged
attr title "contention state, vector"
vector 138 World.node[9].wlan[0].mac.hcf.edca.edcaf[1].contention state:vector ETV
attr interpolationmode none
attr source stateChanged
attr title "contention state, vector"
vector 139 World.node[9].wlan[0].mac.hcf.edca.edcaf[2].contention state:vector ETV
attr interpolationmode none
attr source stateChanged
attr title "contention state, vector"
vector 140 World.node[9].wlan[0].mac.hcf.edca.edcaf[3].contention state:vector ETV
attr interpolationmode none
attr source stateChanged
attr title "contention state, vector"
vector 141 World.node[10] posX:vector ETV
attr source xCoord(mobilityPos(mobilityStateChanged))
vector 142 World.node[10] posY:vector ETV
attr source yCoord(mobilityPos(mobilityStateChanged))
vector 143 World.node[10].wlan[0].radio radioMode:vector ETV
attr interpolationmode sample-hold
attr source radioModeChanged
attr title "Radio mode, vector"
vector 144 World.node[10].wlan[0].radio radioChannel:vector ETV
attr interpolationmode sample-hold
attr source radioChannelChanged
attr title "Radio channel, vector"
vector 145 World.node[10].wlan[0].radio receptionState:vector ETV
attr interpolationmode sample-hold
attr source receptionStateChanged
attr title "Radio reception state, vector"
vector 146 World.node[10].wlan[0].mac.dcf.channelAccess.contention state:vector ETV
attr interpolationmode none
attr source stateChanged
attr title "contention state, vector"
vector 147 World.node[10].wlan[0].mac.hcf.edca.edcaf[0].contention state:vector ETV
attr interpolationmode none
attr source stateChanged
attr title "contention state, vector"
vector 148 World.node[10].wlan[0].mac.hcf.edca.edcaf[1].contention state:vector ETV
attr interpolationmode none
attr source stateChanged
attr title "contention state, vector"
vector 149 World.node[10].wlan[0].mac.hcf.edca.edcaf[2].contention state:vector ETV
attr interpolationmode none
attr source stateChanged
attr title "contention state, vector"
vector 150 World.node[10].wlan[0].mac.hcf.edca.edcaf[3].contention state:vector ETV
attr interpolationmode none
attr source stateChanged
attr title "contention state, vector"
vector 151 World.node[10].wlan[0].mac rcvdPkFromLL:vector(packetBytes) ETV
attr interpolationmode none
attr source packetReceivedFromLower
attr title "packets received from lower layer, vector(packetBytes)"
vector 152 World.node[10].wlan[0].mac passedUpPk:vector(packetBytes) ETV
attr interpolationmode none
attr source packetSentToUpper
attr title "packets passed to higher layer, vector(packetBytes)"
vector 153 World.node[9].wlan[0].mac rcvdPkFromLL:vector(packetBytes) ETV
attr interpolationmode none
attr source packetReceivedFromLower
attr title "packets received from lower layer, vector(packetBytes)"
vector 154 World.node[9].wlan[0].mac passedUpPk:vector(packetBytes) ETV
attr interpolationmode none
attr source packetSentToUpper
attr title "packets passed to higher layer, vector(packetBytes)"
vector 155 World.node[10].wlan[0].mac rcvdPkFromHL:vector(packetBytes) ETV
attr interpolationmode none
attr source packetReceivedFromUpper
attr title "packets received from higher layer, vector(packetBytes)"
vector 156 World.node[10].wlan[0].mac sentDownPk:vector(packetBytes) ETV
attr interpolationmode none
attr source packetSentToLower
attr title "packets sent to lower layer, vector(packetBytes)"
vector 157 World.node[10].wlan[0].radio transmissionState:vector ETV
attr interpolationmode sample-hold
attr source transmissionStateChanged
attr title "Radio transmission state, vector"
vector 158 World.node[9].wlan[0].mac rcvdPkFromHL:vector(packetBytes) ETV
attr interpolationmode none
attr source packetReceivedFromUpper
attr title "packets received from higher layer, vector(packetBytes)"
vector 159 World.node[9].wlan[0].mac sentDownPk:vector(packetBytes) ETV
attr interpolationmode none
attr source packetSentToLower
attr title "packets sent to lower layer, vector(packetBytes)"
vector 160 World.node[9].wlan[0].radio transmissionState:vector ETV
attr interpolationmode sample-hold
attr source transmissionStateChanged
attr title "Radio transmission state, vector"
vector 161 World.node[4].wlan[0].mac rcvdPkFromLL:vector(packetBytes) ETV
attr interpolationmode none
attr source packetReceivedFromLower
attr title "packets received from lower layer, vector(packetBytes)"
vector 162 World.node[4].wlan[0].mac passedUpPk:vector(packetBytes) ETV
attr interpolationmode none
attr source packetSentToUpper
attr title "packets passed to higher layer, vector(packetBytes)"
vector 163 World.node[11] posX:vector ETV
attr source xCoord(mobilityPos(mobilityStateChanged))
vector 164 World.node[11] posY:vector ETV
attr source yCoord(mobilityPos(mobilityStateChanged))
vector 165 World.node[11].wlan[0].radio radioMode:vector ETV
attr interpolationmode sample-hold
attr source radioModeChanged
attr title "Radio mode, vector"
vector 166 World.node[11].wlan[0].radio radioChannel:vector ETV
attr interpolationmode sample-hold
attr source radioChannelChanged
attr title "Radio channel, vector"
vector 167 World.node[11].wlan[0].radio receptionState:vector ETV
attr interpolationmode sample-hold
attr source receptionStateChanged
attr title "Radio reception state, vector"
vector 168 World.node[11].wlan[0].mac.dcf.channelAccess.contention state:vector ETV
attr interpolationmode none
attr source stateChanged
attr title "contention state, vector"
vector 169 World.node[11].wlan[0].mac.hcf.edca.edcaf[0].contention state:vector ETV
attr interpolationmode none
attr source stateChanged
attr title "contention state, vector"
vector 170 World.node[11].wlan[0].mac.hcf.edca.edcaf[1].contention state:vector ETV
attr interpolationmode none
attr source stateChanged
attr title "contention state, vector"
vector 171 World.node[11].wlan[0].mac.hcf.edca.edcaf[2].contention state:vector ETV
attr interpolationmode none
attr source stateChanged
attr title "contention state, vector"
vector 172 World.node[11].wlan[0].mac.hcf.edca.edcaf[3].contention state:vector ETV
attr interpolationmode none
attr source stateChanged
attr title "contention state, vector"
vector 173 World.node[12] posX:vector ETV
attr source xCoord(mobilityPos(mobilityStateChanged))
vector 174 World.node[12] posY:vector ETV
attr source yCoord(mobilityPos(mobilityStateChanged))
vector 175 World.node[12].wlan[0].radio radioMode:vector ETV
attr interpolationmode sample-hold
attr source radioModeChanged
attr title "Radio mode, vector"
vector 176 World.node[12].wlan[0].radio radioChannel:vector ETV
attr interpolationmode sample-hold
attr source radioChannelChanged
attr title "Radio channel, vector"
vector 177 World.node[12].wlan[0].radio receptionState:vector ETV
attr interpolationmode sample-hold
attr source receptionStateChanged
attr title "Radio reception state, vector"
vector 178 World.node[12].wlan[0].mac.dcf.channelAccess.contention state:vector ETV
attr interpolationmode none
attr source stateChanged
attr title "contention state, vector"
vector 179 World.node[12].wlan[0].mac.hcf.edca.edcaf[0].contention state:vector ETV
attr interpolationmode none
attr source stateChanged
attr title "contention state, vector"
vector 180 World.node[12].wlan[0].mac.hcf.edca.edcaf[1].contention state:vector ETV
attr interpolationmode none
attr source stateChanged
attr title "contention state, vector"
vector 181 World.node[12].wlan[0].mac.hcf.edca.edcaf[2].contention state:vector ETV
attr interpolationmode none
attr source stateChanged
attr title "contention state, vector"
vector 182 World.node[12].wlan[0].mac.hcf.edca.edcaf[3].contention state:vector ETV
attr interpolationmode none
attr source stateChanged
attr title "contention state, vector"
vector 183 World.node[12].wlan[0].mac rcvdPkFromLL:vector(packetBytes) ETV
attr interpolationmode none
attr source packetReceivedFromLower
attr title "packets received from lower layer, vector(packetBytes)"
vector 184 World.node[12].wlan[0].mac passedUpPk:vector(packetBytes) ETV
attr interpolationmode none
attr source packetSentToUpper
attr title "packets passed to higher layer, vector(packetBytes)"
vector 185 World.node[11].wlan[0].mac rcvdPkFromLL:vector(packetBytes) ETV
attr interpolationmode none
attr source packetReceivedFromLower
attr title "packets received from lower layer, vector(packetBytes)"
vector 186 World.node[11].wlan[0].mac passedUpPk:vector(packetBytes) ETV
attr interpolationmode none
attr source packetSentToUpper
attr title "packets passed to higher layer, vector(packetBytes)"
vector 187 World.node[11].wlan[0].mac rcvdPkFromHL:vector(packetBytes) ETV
attr interpolationmode none
attr source packetReceivedFromUpper
attr title "packets received from higher layer, vector(packetBytes)"
vector 188 World.node[11].wlan[0].mac sentDownPk:vector(packetBytes) ETV
attr interpolationmode none
attr source packetSentToLower
attr title "packets sent to lower layer, vector(packetBytes)"
vector 189 World.node[11].wlan[0].radio transmissionState:vector ETV
attr interpolationmode sample-hold
attr source transmissionStateChanged
attr title "Radio transmission state, vector"
vector 190 World.node[12].wlan[0].mac rcvdPkFromHL:vector(packetBytes) ETV
attr interpolationmode none
attr source packetReceivedFromUpper
attr title "packets received from higher layer, vector(packetBytes)"
vector 191 World.node[12].wlan[0].mac sentDownPk:vector(packetBytes) ETV
attr interpolationmode none
attr source packetSentToLower
attr title "packets sent to lower layer, vector(packetBytes)"
vector 192 World.node[12].wlan[0].radio transmissionState:vector ETV
attr interpolationmode sample-hold
attr source transmissionStateChanged
attr title "Radio transmission state, vector"
vector 193 World.node[13] posX:vector ETV
attr source xCoord(mobilityPos(mobilityStateChanged))
vector 194 World.node[13] posY:vector ETV
attr source yCoord(mobilityPos(mobilityStateChanged))
vector 195 World.node[13].wlan[0].radio radioMode:vector ETV
attr interpolationmode sample-hold
attr source radioModeChanged
attr title "Radio mode, vector"
vector 196 World.node[13].wlan[0].radio radioChannel:vector ETV
attr interpolationmode sample-hold
attr source radioChannelChanged
attr title "Radio channel, vector"
vector 197 World.node[13].wlan[0].radio receptionState:vector ETV
attr interpolationmode sample-hold
attr source receptionStateChanged
attr title "Radio reception state, vector"
vector 198 World.node[13].wlan[0].mac.dcf.channelAccess.contention state:vector ETV
attr interpolationmode none
attr source stateChanged
attr title "contention state, vector"
vector 199 World.node[13].wlan[0].mac.hcf.edca.edcaf[0].contention state:vector ETV
attr interpolationmode none
attr source stateChanged
attr title "contention state, vector"
vector 200 World.node[13].wlan[0].mac.hcf.edca.edcaf[1].contention state:vector ETV
attr interpolationmode none
attr source stateChanged
attr title "contention state, vector"
vector 201 World.node[13].wlan[0].mac.hcf.edca.edcaf[2].contention state:vector ETV
attr interpolationmode none
attr source stateChanged
attr title "contention state, vector"
vector 202 World.node[13].wlan[0].mac.hcf.edca.edcaf[3].contention state:vector ETV
attr interpolationmode none
attr source stateChanged
attr title "contention state, vector"
vector 203 World.node[14] posX:vector ETV
attr source xCoord(mobilityPos(mobilityStateChanged))
vector 204 World.node[14] posY:vector ETV
attr source yCoord(mobilityPos(mobilityStateChanged))
vector 205 World.node[14].wlan[0].radio radioMode:vector ETV
attr interpolationmode sample-hold
attr source radioModeChanged
attr title "Radio mode, vector"
vector 206 World.node[14].wlan[0].radio radioChannel:vector ETV
attr interpolationmode sample-hold
attr source radioChannelChanged
attr title "Radio channel, vector"
vector 207 World.node[14].wlan[0].radio receptionState:vector ETV
attr interpolationmode sample-hold
attr source receptionStateChanged
attr title "Radio reception state, vector"
vector 208 World.node[14].wlan[0].mac.dcf.channelAccess.contention state:vector ETV
attr interpolationmode none
attr source stateChanged
attr title "contention state, vector"
vector 209 World.node[14].wlan[0].mac.hcf.edca.edcaf[0].contention state:vector ETV
attr interpolationmode none
attr source stateChanged
attr title "contention state, vector"
vector 210 World.node[14].wlan[0].mac.hcf.edca.edcaf[1].contention state:vector ETV
attr interpolationmode none
attr source stateChanged
attr title "contention state, vector"
vector 211 World.node[14].wlan[0].mac.hcf.edca.edcaf[2].contention state:vector ETV
attr interpolationmode none
attr source stateChanged
attr title "contention state, vector"
vector 212 World.node[14].wlan[0].mac.hcf.edca.edcaf[3].contention state:vector ETV
attr interpolationmode none
attr source stateChanged
attr title "contention state, vector"
vector 213 World.node[14].wlan[0].mac rcvdPkFromLL:vector(packetBytes) ETV
attr interpolationmode none
attr source packetReceivedFromLower
attr title "packets received from lower layer, vector(packetBytes)"
vector 214 World.node[14].wlan[0].mac passedUpPk:vector(packetBytes) ETV
attr interpolationmode none
attr source packetSentToUpper
attr title "packets passed to higher layer, vector(packetBytes)"
vector 215 World.node[13].wlan[0].mac rcvdPkFromLL:vector(packetBytes) ETV
attr interpolationmode none
attr source packetReceivedFromLower
attr title "packets received from lower layer, vector(packetBytes)"
vector 216 World.node[13].wlan[0].mac passedUpPk:vector(packetBytes) ETV
attr interpolationmode none
attr source packetSentToUpper
attr title "packets passed to higher layer, vector(packetBytes)"
vector 217 World.node[14].wlan[0].mac rcvdPkFromHL:vector(packetBytes) ETV
attr interpolationmode none
attr source packetReceivedFromUpper
attr title "packets received from higher layer, vector(packetBytes)"
vector 218 World.node[14].wlan[0].mac sentDownPk:vector(packetBytes) ETV
attr interpolationmode none
attr source packetSentToLower
attr title "packets sent to lower layer, vector(packetBytes)"
vector 219 World.node[14].wlan[0].radio transmissionState:vector ETV
attr interpolationmode sample-hold
attr source transmissionStateChanged
attr title "Radio transmission state, vector"
vector 220 World.node[13].wlan[0].mac rcvdPkFromHL:vector(packetBytes) ETV
attr interpolationmode none
attr source packetReceivedFromUpper
attr title "packets received from higher layer, vector(packetBytes)"
vector 221 World.node[13].wlan[0].mac sentDownPk:vector(packetBytes) ETV
attr interpolationmode none
attr source packetSentToLower
attr title "packets sent to lower layer, vector(packetBytes)"
vector 222 World.node[13].wlan[0].radio transmissionState:vector ETV
attr interpolationmode sample-hold
attr source transmissionStateChanged
attr title "Radio transmission state, vector"
vector 223 World.node[8].wlan[0].mac rcvdPkFromLL:vector(packetBytes) ETV
attr interpolationmode none
attr source packetReceivedFromLower
attr title "packets received from lower layer, vector(packetBytes)"
vector 224 World.node[8].wlan[0].mac passedUpPk:vector(packetBytes) ETV
attr interpolationmode none
attr source packetSentToUpper
attr title "packets passed to higher layer, vector(packetBytes)"
vector 225 World.node[15] posX:vector ETV
attr source xCoord(mobilityPos(mobilityStateChanged))
vector 226 World.node[15] posY:vector ETV
attr source yCoord(mobilityPos(mobilityStateChanged))
vector 227 World.node[15].wlan[0].radio radioMode:vector ETV
attr interpolationmode sample-hold
attr source radioModeChanged
attr title "Radio mode, vector"
vector 228 World.node[15].wlan[0].radio radioChannel:vector ETV
attr interpolationmode sample-hold
attr source radioChannelChanged
attr title "Radio channel, vector"
vector 229 World.node[15].wlan[0].radio receptionState:vector ETV
attr interpolationmode sample-hold
attr source receptionStateChanged
attr title "Radio reception state, vector"
vector 230 World.node[15].wlan[0].mac.dcf.channelAccess.contention state:vector ETV
attr interpolationmode none
attr source stateChanged
attr title "contention state, vector"
vector 231 World.node[15].wlan[0].mac.hcf.edca.edcaf[0].contention state:vector ETV
attr interpolationmode none
attr source stateChanged
attr title "contention state, vector"
vector 232 World.node[15].wlan[0].mac.hcf.edca.edcaf[1].contention state:vector ETV
attr interpolationmode none
attr source stateChanged
attr title "contention state, vector"
vector 233 World.node[15].wlan[0].mac.hcf.edca.edcaf[2].contention state:vector ETV
attr interpolationmode none
attr source stateChanged
attr title "contention state, vector"
vector 234 World.node[15].wlan[0].mac.hcf.edca.edcaf[3].contention state:vector ETV
attr interpolationmode none
attr source stateChanged
attr title "contention state, vector"
vector 235 World.node[16] posX:vector ETV
attr source xCoord(mobilityPos(mobilityStateChanged))
vector 236 World.node[16] posY:vector ETV
attr source yCoord(mobilityPos(mobilityStateChanged))
vector 237 World.node[16].wlan[0].radio radioMode:vector ETV
attr interpolationmode sample-hold
attr source radioModeChanged
attr title "Radio mode, vector"
vector 238 World.node[16].wlan[0].radio radioChannel:vector ETV
attr interpolationmode sample-hold
attr source radioChannelChanged
attr title "Radio channel, vector"
vector 239 World.node[16].wlan[0].radio receptionState:vector ETV
attr interpolationmode sample-hold
attr source receptionStateChanged
attr title "Radio reception state, vector"
vector 240 World.node[16].wlan[0].mac.dcf.channelAccess.contention state:vector ETV
attr interpolationmode none
attr source stateChanged
attr title "contention state, vector"
vector 241 World.node[16].wlan[0].mac.hcf.edca.edcaf[0].contention state:vector ETV
attr interpolationmode none
attr source stateChanged
attr title "contention state, vector"
vector 242 World.node[16].wlan[0].mac.hcf.edca.edcaf[1].contention state:vector ETV
attr interpolationmode none
attr source stateChanged
attr title "contention state, vector"
vector 243 World.node[16].wlan[0].mac.hcf.edca.edcaf[2].contention state:vector ETV
attr interpolationmode none
attr source stateChanged
attr title "contention state, vector"
vector 244 World.node[16].wlan[0].mac.hcf.edca.edcaf[3].contention state:vector ETV
attr interpolationmode none
attr source stateChanged
attr title "contention state, vector"
vector 245 World.node[15].wlan[0].mac rcvdPkFromLL:vector(packetBytes) ETV
attr interpolationmode none
attr source packetReceivedFromLower
attr title "packets received from lower layer, vector(packetBytes)"
vector 246 World.node[15].wlan[0].mac passedUpPk:vector(packetBytes) ETV
attr interpolationmode none
attr source packetSentToUpper
attr title "packets passed to higher layer, vector(packetBytes)"
vector 247 World.node[16].wlan[0].mac rcvdPkFromLL:vector(packetBytes) ETV
attr interpolationmode none
attr source packetReceivedFromLower
attr title "packets received from lower layer, vector(packetBytes)"
vector 248 World.node[16].wlan[0].mac passedUpPk:vector(packetBytes) ETV
attr interpolationmode none
attr source packetSentToUpper
attr title "packets passed to higher layer, vector(packetBytes)"
vector 249 World.node[15].wlan[0].mac rcvdPkFromHL:vector(packetBytes) ETV
attr interpolationmode none
attr source packetReceivedFromUpper
attr title "packets received from higher layer, vector(packetBytes)"
vector 250 World.node[15].wlan[0].mac sentDownPk:vector(packetBytes) ETV
attr interpolationmode none
attr source packetSentToLower
attr title "packets sent to lower layer, vector(packetBytes)"
vector 251 World.node[15].wlan[0].radio transmissionState:vector ETV
attr interpolationmode sample-hold
attr source transmissionStateChanged
attr title "Radio transmission state, vector"
vector 252 World.node[16].wlan[0].mac rcvdPkFromHL:vector(packetBytes) ETV
attr interpolationmode none
attr source packetReceivedFromUpper
attr title "packets received from higher layer, vector(packetBytes)"
vector 253 World.node[16].wlan[0].mac sentDownPk:vector(packetBytes) ETV
attr interpolationmode none
attr source packetSentToLower
attr title "packets sent to lower layer, vector(packetBytes)"
vector 254 World.node[16].wlan[0].radio transmissionState:vector ETV
attr interpolationmode sample-hold
attr source transmissionStateChanged
attr title "Radio transmission state, vector"
vector 255 World.node[17] posX:vector ETV
attr source xCoord(mobilityPos(mobilityStateChanged))
vector 256 World.node[17] posY:vector ETV
attr source yCoord(mobilityPos(mobilityStateChanged))
vector 257 World.node[17].wlan[0].radio radioMode:vector ETV
attr interpolationmode sample-hold
attr source radioModeChanged
attr title "Radio mode, vector"
vector 258 World.node[17].wlan[0].radio radioChannel:vector ETV
attr interpolationmode sample-hold
attr source radioChannelChanged
attr title "Radio channel, vector"
vector 259 World.node[17].wlan[0].radio receptionState:vector ETV
attr interpolationmode sample-hold
attr source receptionStateChanged
attr title "Radio reception state, vector"
vector 260 World.node[17].wlan[0].mac.dcf.channelAccess.contention state:vector ETV
attr interpolationmode none
attr source stateChanged
attr title "contention state, vector"
vector 261 World.node[17].wlan[0].mac.hcf.edca.edcaf[0].contention state:vector ETV
attr interpolationmode none
attr source stateChanged
attr title "contention state, vector"
vector 262 World.node[17].wlan[0].mac.hcf.edca.edcaf[1].contention state:vector ETV
attr interpolationmode none
attr source stateChanged
attr title "contention state, vector"
vector 263 World.node[17].wlan[0].mac.hcf.edca.edcaf[2].contention state:vector ETV
attr interpolationmode none
attr source stateChanged
attr title "contention state, vector"
vector 264 World.node[17].wlan[0].mac.hcf.edca.edcaf[3].contention state:vector ETV
attr interpolationmode none
attr source stateChanged
attr title "contention state, vector"
vector 265 World.node[18] posX:vector ETV
attr source xCoord(mobilityPos(mobilityStateChanged))
vector 266 World.node[18] posY:vector ETV
attr source yCoord(mobilityPos(mobilityStateChanged))
vector 267 World.node[18].wlan[0].radio radioMode:vector ETV
attr interpolationmode sample-hold
attr source radioModeChanged
attr title "Radio mode, vector"
vector 268 World.node[18].wlan[0].radio radioChannel:vector ETV
attr interpolationmode sample-hold
attr source radioChannelChanged
attr title "Radio channel, vector"
vector 269 World.node[18].wlan[0].radio receptionState:vector ETV
attr interpolationmode sample-hold
attr source receptionStateChanged
attr title "Radio reception state, vector"
vector 270 World.node[18].wlan[0].mac.dcf.channelAccess.contention state:vector ETV
attr interpolationmode none
attr source stateChanged
attr title "contention state, vector"
vector 271 World.node[18].wlan[0].mac.hcf.edca.edcaf[0].contention state:vector ETV
attr interpolationmode none
attr source stateChanged
attr title "contention state, vector"
vector 272 World.node[18].wlan[0].mac.hcf.edca.edcaf[1].contention state:vector ETV
attr interpolationmode none
attr source stateChanged
attr title "contention state, vector"
vector 273 World.node[18].wlan[0].mac.hcf.edca.edcaf[2].contention state:vector ETV
attr interpolationmode none
attr source stateChanged
attr title "contention state, vector"
vector 274 World.node[18].wlan[0].mac.hcf.edca.edcaf[3].contention state:vector ETV
attr interpolationmode none
attr source stateChanged
attr title "contention state, vector"
vector 275 World.node[17].wlan[0].mac rcvdPkFromLL:vector(packetBytes) ETV
attr interpolationmode none
attr source packetReceivedFromLower
attr title "packets received from lower layer, vector(packetBytes)"
vector 276 World.node[17].wlan[0].mac passedUpPk:vector(packetBytes) ETV
attr interpolationmode none
attr source packetSentToUpper
attr title "packets passed to higher layer, vector(packetBytes)"
vector 277 World.node[18].wlan[0].mac rcvdPkFromLL:vector(packetBytes) ETV
attr interpolationmode none
attr source packetReceivedFromLower
attr title "packets received from lower layer, vector(packetBytes)"
vector 278 World.node[18].wlan[0].mac passedUpPk:vector(packetBytes) ETV
attr interpolationmode none
attr source packetSentToUpper
attr title "packets passed to higher layer, vector(packetBytes)"
vector 279 World.node[17].wlan[0].mac rcvdPkFromHL:vector(packetBytes) ETV
attr interpolationmode none
attr source packetReceivedFromUpper
attr title "packets received from higher layer, vector(packetBytes)"
vector 280 World.node[17].wlan[0].mac sentDownPk:vector(packetBytes) ETV
attr interpolationmode none
attr source packetSentToLower
attr title "packets sent to lower layer, vector(packetBytes)"
vector 281 World.node[17].wlan[0].radio transmissionState:vector ETV
attr interpolationmode sample-hold
attr source transmissionStateChanged
attr title "Radio transmission state, vector"
vector 282 World.node[18].wlan[0].mac rcvdPkFromHL:vector(packetBytes) ETV
attr interpolationmode none
attr source packetReceivedFromUpper
attr title "packets received from higher layer, vector(packetBytes)"
vector 283 World.node[18].wlan[0].mac sentDownPk:vector(packetBytes) ETV
attr interpolationmode none
attr source packetSentToLower
attr title "packets sent to lower layer, vector(packetBytes)"
vector 284 World.node[18].wlan[0].radio transmissionState:vector ETV
attr interpolationmode sample-hold
attr source transmissionStateChanged
attr title "Radio transmission state, vector"
vector 285 World.node[19] posX:vector ETV
attr source xCoord(mobilityPos(mobilityStateChanged))
vector 286 World.node[19] posY:vector ETV
attr source yCoord(mobilityPos(mobilityStateChanged))
vector 287 World.node[19].wlan[0].radio radioMode:vector ETV
attr interpolationmode sample-hold
attr source radioModeChanged
attr title "Radio mode, vector"
vector 288 World.node[19].wlan[0].radio radioChannel:vector ETV
attr interpolationmode sample-hold
attr source radioChannelChanged
attr title "Radio channel, vector"
vector 289 World.node[19].wlan[0].radio receptionState:vector ETV
attr interpolationmode sample-hold
attr source receptionStateChanged
attr title "Radio reception state, vector"
vector 290 World.node[19].wlan[0].mac.dcf.channelAccess.contention state:vector ETV
attr interpolationmode none
attr source stateChanged
attr title "contention state, vector"
vector 291 World.node[19].wlan[0].mac.hcf.edca.edcaf[0].contention state:vector ETV
attr interpolationmode none
attr source stateChanged
attr title "contention state, vector"
vector 292 World.node[19].wlan[0].mac.hcf.edca.edcaf[1].contention state:vector ETV
attr interpolationmode none
attr source stateChanged
attr title "contention state, vector"
vector 293 World.node[19].wlan[0].mac.hcf.edca.edcaf[2].contention state:vector ETV
attr interpolationmode none
attr source stateChanged
attr title "contention state, vector"
vector 294 World.node[19].wlan[0].mac.hcf.edca.edcaf[3].contention state:vector ETV
attr interpolationmode none
attr source stateChanged
attr title "contention state, vector"
vector 295 World.node[20] posX:vector ETV
attr source xCoord(mobilityPos(mobilityStateChanged))
vector 296 World.node[20] posY:vector ETV
attr source yCoord(mobilityPos(mobilityStateChanged))
vector 297 World.node[20].wlan[0].radio radioMode:vector ETV
attr interpolationmode sample-hold
attr source radioModeChanged
attr title "Radio mode, vector"
vector 298 World.node[20].wlan[0].radio radioChannel:vector ETV
attr interpolationmode sample-hold
attr source radioChannelChanged
attr title "Radio channel, vector"
vector 299 World.node[20].wlan[0].radio receptionState:vector ETV
attr interpolationmode sample-hold
attr source receptionStateChanged
attr title "Radio reception state, vector"
vector 300 World.node[20].wlan[0].mac.dcf.channelAccess.contention state:vector ETV
attr interpolationmode none
attr source stateChanged
attr title "contention state, vector"
vector 301 World.node[20].wlan[0].mac.hcf.edca.edcaf[0].contention state:vector ETV
attr interpolationmode none
attr source stateChanged
attr title "contention state, vector"
vector 302 World.node[20].wlan[0].mac.hcf.edca.edcaf[1].contention state:vector ETV
attr interpolationmode none
attr source stateChanged
attr title "contention state, vector"
vector 303 World.node[20].wlan[0].mac.hcf.edca.edcaf[2].contention state:vector ETV
attr interpolationmode none
attr source stateChanged
attr title "contention state, vector"
vector 304 World.node[20].wlan[0].mac.hcf.edca.edcaf[3].contention state:vector ETV
attr interpolationmode none
attr source stateChanged
attr title "contention state, vector"
vector 305 World.node[19].wlan[0].mac rcvdPkFromLL:vector(packetBytes) ETV
attr interpolationmode none
attr source packetReceivedFromLower
attr title "packets received from lower layer, vector(packetBytes)"
vector 306 World.node[19].wlan[0].mac passedUpPk:vector(packetBytes) ETV
attr interpolationmode none
attr source packetSentToUpper
attr title "packets passed to higher layer, vector(packetBytes)"
vector 307 World.node[20].wlan[0].mac rcvdPkFromHL:vector(packetBytes) ETV
attr interpolationmode none
attr source packetReceivedFromUpper
attr title "packets received from higher layer, vector(packetBytes)"
vector 308 World.node[20].wlan[0].mac sentDownPk:vector(packetBytes) ETV
attr interpolationmode none
attr source packetSentToLower
attr title "packets sent to lower layer, vector(packetBytes)"
vector 309 World.node[20].wlan[0].radio transmissionState:vector ETV
attr interpolationmode sample-hold
attr source transmissionStateChanged
attr title "Radio transmission state, vector"
vector 310 World.node[19].wlan[0].mac rcvdPkFromHL:vector(packetBytes) ETV
attr interpolationmode none
attr source packetReceivedFromUpper
attr title "packets received from higher layer, vector(packetBytes)"
vector 311 World.node[19].wlan[0].mac sentDownPk:vector(packetBytes) ETV
attr interpolationmode none
attr source packetSentToLower
attr title "packets sent to lower layer, vector(packetBytes)"
vector 312 World.node[19].wlan[0].radio transmissionState:vector ETV
attr interpolationmode sample-hold
attr source transmissionStateChanged
attr title "Radio transmission state, vector"
vector 313 World.node[21] posX:vector ETV
attr source xCoord(mobilityPos(mobilityStateChanged))
vector 314 World.node[21] posY:vector ETV
attr source yCoord(mobilityPos(mobilityStateChanged))
vector 315 World.node[21].wlan[0].radio radioMode:vector ETV
attr interpolationmode sample-hold
attr source radioModeChanged
attr title "Radio mode, vector"
vector 316 World.node[21].wlan[0].radio radioChannel:vector ETV
attr interpolationmode sample-hold
attr source radioChannelChanged
attr title "Radio channel, vector"
vector 317 World.node[21].wlan[0].radio receptionState:vector ETV
attr interpolationmode sample-hold
attr source receptionStateChanged
attr title "Radio reception state, vector"
vector 318 World.node[21].wlan[0].mac.dcf.channelAccess.contention state:vector ETV
attr interpolationmode none
attr source stateChanged
attr title "contention state, vector"
vector 319 World.node[21].wlan[0].mac.hcf.edca.edcaf[0].contention state:vector ETV
attr interpolationmode none
attr source stateChanged
attr title "contention state, vector"
vector 320 World.node[21].wlan[0].mac.hcf.edca.edcaf[1].contention state:vector ETV
attr interpolationmode none
attr source stateChanged
attr title "contention state, vector"
vector 321 World.node[21].wlan[0].mac.hcf.edca.edcaf[2].contention state:vector ETV
attr interpolationmode none
attr source stateChanged
attr title "contention state, vector"
vector 322 World.node[21].wlan[0].mac.hcf.edca.edcaf[3].contention state:vector ETV
attr interpolationmode none
attr source stateChanged
attr title "contention state, vector"
vector 323 World.node[22] posX:vector ETV
attr source xCoord(mobilityPos(mobilityStateChanged))
vector 324 World.node[22] posY:vector ETV
attr source yCoord(mobilityPos(mobilityStateChanged))
vector 325 World.node[22].wlan[0].radio radioMode:vector ETV
attr interpolationmode sample-hold
attr source radioModeChanged
attr title "Radio mode, vector"
vector 326 World.node[22].wlan[0].radio radioChannel:vector ETV
attr interpolationmode sample-hold
attr source radioChannelChanged
attr title "Radio channel, vector"
vector 327 World.node[22].wlan[0].radio receptionState:vector ETV
attr interpolationmode sample-hold
attr source receptionStateChanged
attr title "Radio reception state, vector"
vector 328 World.node[22].wlan[0].mac.dcf.channelAccess.contention state:vector ETV
attr interpolationmode none
attr source stateChanged
attr title "contention state, vector"
vector 329 World.node[22].wlan[0].mac.hcf.edca.edcaf[0].contention state:vector ETV
attr interpolationmode none
attr source stateChanged
attr title "contention state, vector"
vector 330 World.node[22].wlan[0].mac.hcf.edca.edcaf[1].contention state:vector ETV
attr interpolationmode none
attr source stateChanged
attr title "contention state, vector"
vector 331 World.node[22].wlan[0].mac.hcf.edca.edcaf[2].contention state:vector ETV
attr interpolationmode none
attr source stateChanged
attr title "contention state, vector"
vector 332 World.node[22].wlan[0].mac.hcf.edca.edcaf[3].contention state:vector ETV
attr interpolationmode none
attr source stateChanged
attr title "contention state, vector"
vector 333 World.node[21].wlan[0].mac rcvdPkFromLL:vector(packetBytes) ETV
attr interpolationmode none
attr source packetReceivedFromLower
attr title "packets received from lower layer, vector(packetBytes)"
vector 334 World.node[21].wlan[0].mac passedUpPk:vector(packetBytes) ETV
attr interpolationmode none
attr source packetSentToUpper
attr title "packets passed to higher layer, vector(packetBytes)"
vector 335 World.node[21].wlan[0].mac rcvdPkFromHL:vector(packetBytes) ETV
attr interpolationmode none
attr source packetReceivedFromUpper
attr title "packets received from higher layer, vector(packetBytes)"
vector 336 World.node[21].wlan[0].mac sentDownPk:vector(packetBytes) ETV
attr interpolationmode none
attr source packetSentToLower
attr title "packets sent to lower layer, vector(packetBytes)"
vector 337 World.node[21].wlan[0].radio transmissionState:vector ETV
attr interpolationmode sample-hold
attr source transmissionStateChanged
attr title "Radio transmission state, vector"
vector 338 World.node[22].wlan[0].mac rcvdPkFromHL:vector(packetBytes) ETV
attr interpolationmode none
attr source packetReceivedFromUpper
attr title "packets received from higher layer, vector(packetBytes)"
vector 339 World.node[22].wlan[0].mac sentDownPk:vector(packetBytes) ETV
attr interpolationmode none
attr source packetSentToLower
attr title "packets sent to lower layer, vector(packetBytes)"
vector 340 World.node[22].wlan[0].radio transmissionState:vector ETV
attr interpolationmode sample-hold
attr source transmissionStateChanged
attr title "Radio transmission state, vector"
vector 341 World.node[23] posX:vector ETV
attr source xCoord(mobilityPos(mobilityStateChanged))
vector 342 World.node[23] posY:vector ETV
attr source yCoord(mobilityPos(mobilityStateChanged))
vector 343 World.node[23].wlan[0].radio radioMode:vector ETV
attr interpolationmode sample-hold
attr source radioModeChanged
attr title "Radio mode, vector"
vector 344 World.node[23].wlan[0].radio radioChannel:vector ETV
attr interpolationmode sample-hold
attr source radioChannelChanged
attr title "Radio channel, vector"
vector 345 World.node[23].wlan[0].radio receptionState:vector ETV
attr interpolationmode sample-hold
attr source receptionStateChanged
attr title "Radio reception state, vector"
vector 346 World.node[23].wlan[0].mac.dcf.channelAccess.contention state:vector ETV
attr interpolationmode none
attr source stateChanged
attr title "contention state, vector"
vector 347 World.node[23].wlan[0].mac.hcf.edca.edcaf[0].contention state:vector ETV
attr interpolationmode none
attr source stateChanged
attr title "contention state, vector"
vector 348 World.node[23].wlan[0].mac.hcf.edca.edcaf[1].contention state:vector ETV
attr interpolationmode none
attr source stateChanged
attr title "contention state, vector"
vector 349 World.node[23].wlan[0].mac.hcf.edca.edcaf[2].contention state:vector ETV
attr interpolationmode none
attr source stateChanged
attr title "contention state, vector"
vector 350 World.node[23].wlan[0].mac.hcf.edca.edcaf[3].contention state:vector ETV
attr interpolationmode none
attr source stateChanged
attr title "contention state, vector"
vector 351 World.node[24] posX:vector ETV
attr source xCoord(mobilityPos(mobilityStateChanged))
vector 352 World.node[24] posY:vector ETV
attr source yCoord(mobilityPos(mobilityStateChanged))
vector 353 World.node[24].wlan[0].radio radioMode:vector ETV
attr interpolationmode sample-hold
attr source radioModeChanged
attr title "Radio mode, vector"
vector 354 World.node[24].wlan[0].radio radioChannel:vector ETV
attr interpolationmode sample-hold
attr source radioChannelChanged
attr title "Radio channel, vector"
vector 355 World.node[24].wlan[0].radio receptionState:vector ETV
attr interpolationmode sample-hold
attr source receptionStateChanged
attr title "Radio reception state, vector"
vector 356 World.node[24].wlan[0].mac.dcf.channelAccess.contention state:vector ETV
attr interpolationmode none
attr source stateChanged
attr title "contention state, vector"
vector 357 World.node[24].wlan[0].mac.hcf.edca.edcaf[0].contention state:vector ETV
attr interpolationmode none
attr source stateChanged
attr title "contention state, vector"
vector 358 World.node[24].wlan[0].mac.hcf.edca.edcaf[1].contention state:vector ETV
attr interpolationmode none
attr source stateChanged
attr title "contention state, vector"
vector 359 World.node[24].wlan[0].mac.hcf.edca.edcaf[2].contention state:vector ETV
attr interpolationmode none
attr source stateChanged
attr title "contention state, vector"
vector 360 World.node[24].wlan[0].mac.hcf.edca.edcaf[3].contention state:vector ETV
attr interpolationmode none
attr source stateChanged
attr title "contention state, vector"
vector 361 World.node[23].wlan[0].mac rcvdPkFromLL:vector(packetBytes) ETV
attr interpolationmode none
attr source packetReceivedFromLower
attr title "packets received from lower layer, vector(packetBytes)"
vector 362 World.node[23].wlan[0].mac passedUpPk:vector(packetBytes) ETV
attr interpolationmode none
attr source packetSentToUpper
attr title "packets passed to higher layer, vector(packetBytes)"
vector 363 World.node[23].wlan[0].mac rcvdPkFromHL:vector(packetBytes) ETV
attr interpolationmode none
attr source packetReceivedFromUpper
attr title "packets received from higher layer, vector(packetBytes)"
vector 364 World.node[23].wlan[0].mac sentDownPk:vector(packetBytes) ETV
attr interpolationmode none
attr source packetSentToLower
attr title "packets sent to lower layer, vector(packetBytes)"
vector 365 World.node[23].wlan[0].radio transmissionState:vector ETV
attr interpolationmode sample-hold
attr source transmissionStateChanged
attr title "Radio transmission state, vector"
vector 366 World.node[24].wlan[0].mac rcvdPkFromHL:vector(packetBytes) ETV
attr interpolationmode none
attr source packetReceivedFromUpper
attr title "packets received from higher layer, vector(packetBytes)"
vector 367 World.node[24].wlan[0].mac sentDownPk:vector(packetBytes) ETV
attr interpolationmode none
attr source packetSentToLower
attr title "packets sent to lower layer, vector(packetBytes)"
vector 368 World.node[24].wlan[0].radio transmissionState:vector ETV
attr interpolationmode sample-hold
attr source transmissionStateChanged
attr title "Radio transmission state, vector"
vector 369 World.node[25] posX:vector ETV
attr source xCoord(mobilityPos(mobilityStateChanged))
vector 370 World.node[25] posY:vector ETV
attr source yCoord(mobilityPos(mobilityStateChanged))
vector 371 World.node[25].wlan[0].radio radioMode:vector ETV
attr interpolationmode sample-hold
attr source radioModeChanged
attr title "Radio mode, vector"
vector 372 World.node[25].wlan[0].radio radioChannel:vector ETV
attr interpolationmode sample-hold
attr source radioChannelChanged
attr title "Radio channel, vector"
vector 373 World.node[25].wlan[0].radio receptionState:vector ETV
attr interpolationmode sample-hold
attr source receptionStateChanged
attr title "Radio reception state, vector"
vector 374 World.node[25].wlan[0].mac.dcf.channelAccess.contention state:vector ETV
attr interpolationmode none
attr source stateChanged
attr title "contention state, vector"
vector 375 World.node[25].wlan[0].mac.hcf.edca.edcaf[0].contention state:vector ETV
attr interpolationmode none
attr source stateChanged
attr title "contention state, vector"
vector 376 World.node[25].wlan[0].mac.hcf.edca.edcaf[1].contention state:vector ETV
attr interpolationmode none
attr source stateChanged
attr title "contention state, vector"
vector 377 World.node[25].wlan[0].mac.hcf.edca.edcaf[2].contention state:vector ETV
attr interpolationmode none
attr source stateChanged
attr title "contention state, vector"
vector 378 World.node[25].wlan[0].mac.hcf.edca.edcaf[3].contention state:vector ETV
attr interpolationmode none
attr source stateChanged
attr title "contention state, vector"
vector 379 World.node[26] posX:vector ETV
attr source xCoord(mobilityPos(mobilityStateChanged))
vector 380 World.node[26] posY:vector ETV
attr source yCoord(mobilityPos(mobilityStateChanged))
vector 381 World.node[26].wlan[0].radio radioMode:vector ETV
attr interpolationmode sample-hold
attr source radioModeChanged
attr title "Radio mode, vector"
vector 382 World.node[26].wlan[0].radio radioChannel:vector ETV
attr interpolationmode sample-hold
attr source radioChannelChanged
attr title "Radio channel, vector"
vector 383 World.node[26].wlan[0].radio receptionState:vector ETV
attr interpolationmode sample-hold
attr source receptionStateChanged
attr title "Radio reception state, vector"
vector 384 World.node[26].wlan[0].mac.dcf.channelAccess.contention state:vector ETV
attr interpolationmode none
attr source stateChanged
attr title "contention state, vector"
vector 385 World.node[26].wlan[0].mac.hcf.edca.edcaf[0].contention state:vector ETV
attr interpolationmode none
attr source stateChanged
attr title "contention state, vector"
vector 386 World.node[26].wlan[0].mac.hcf.edca.edcaf[1].contention state:vector ETV
attr interpolationmode none
attr source stateChanged
attr title "contention state, vector"
vector 387 World.node[26].wlan[0].mac.hcf.edca.edcaf[2].contention state:vector ETV
attr interpolationmode none
attr source stateChanged
attr title "contention state, vector"
vector 388 World.node[26].wlan[0].mac.hcf.edca.edcaf[3].contention state:vector ETV
attr interpolationmode none
attr source stateChanged
attr title "contention state, vector"
vector 389 World.node[26].wlan[0].mac rcvdPkFromLL:vector(packetBytes) ETV
attr interpolationmode none
attr source packetReceivedFromLower
attr title "packets received from lower layer, vector(packetBytes)"
vector 390 World.node[26].wlan[0].mac passedUpPk:vector(packetBytes) ETV
attr interpolationmode none
attr source packetSentToUpper
attr title "packets passed to higher layer, vector(packetBytes)"
vector 391 World.node[25].wlan[0].mac rcvdPkFromLL:vector(packetBytes) ETV
attr interpolationmode none
attr source packetReceivedFromLower
attr title "packets received from lower layer, vector(packetBytes)"
vector 392 World.node[25].wlan[0].mac passedUpPk:vector(packetBytes) ETV
attr interpolationmode none
attr source packetSentToUpper
attr title "packets passed to higher layer, vector(packetBytes)"
vector 393 World.node[26].wlan[0].mac rcvdPkFromHL:vector(packetBytes) ETV
attr interpolationmode none
attr source packetReceivedFromUpper
attr title "packets received from higher layer, vector(packetBytes)"
vector 394 World.node[26].wlan[0].mac sentDownPk:vector(packetBytes) ETV
attr interpolationmode none
attr source packetSentToLower
attr title "packets sent to lower layer, vector(packetBytes)"
vector 395 World.node[26].wlan[0].radio transmissionState:vector ETV
attr interpolationmode sample-hold
attr source transmissionStateChanged
attr title "Radio transmission state, vector"
vector 396 World.node[25].wlan[0].mac rcvdPkFromHL:vector(packetBytes) ETV
attr interpolationmode none
attr source packetReceivedFromUpper
attr title "packets received from higher layer, vector(packetBytes)"
vector 397 World.node[25].wlan[0].mac sentDownPk:vector(packetBytes) ETV
attr interpolationmode none
attr source packetSentToLower
attr title "packets sent to lower layer, vector(packetBytes)"
vector 398 World.node[25].wlan[0].radio transmissionState:vector ETV
attr interpolationmode sample-hold
attr source transmissionStateChanged
attr title "Radio transmission state, vector"
vector 399 World.node[20].wlan[0].mac rcvdPkFromLL:vector(packetBytes) ETV
attr interpolationmode none
attr source packetReceivedFromLower
attr title "packets received from lower layer, vector(packetBytes)"
vector 400 World.node[20].wlan[0].mac passedUpPk:vector(packetBytes) ETV
attr interpolationmode none
attr source packetSentToUpper
attr title "packets passed to higher layer, vector(packetBytes)"
vector 401 World.node[27] posX:vector ETV
attr source xCoord(mobilityPos(mobilityStateChanged))
vector 402 World.node[27] posY:vector ETV
attr source yCoord(mobilityPos(mobilityStateChanged))
vector 403 World.node[27].wlan[0].radio radioMode:vector ETV
attr interpolationmode sample-hold
attr source radioModeChanged
attr title "Radio mode, vector"
vector 404 World.node[27].wlan[0].radio radioChannel:vector ETV
attr interpolationmode sample-hold
attr source radioChannelChanged
attr title "Radio channel, vector"
vector 405 World.node[27].wlan[0].radio receptionState:vector ETV
attr interpolationmode sample-hold
attr source receptionStateChanged
attr title "Radio reception state, vector"
vector 406 World.node[27].wlan[0].mac.dcf.channelAccess.contention state:vector ETV
attr interpolationmode none
attr source stateChanged
attr title "contention state, vector"
vector 407 World.node[27].wlan[0].mac.hcf.edca.edcaf[0].contention state:vector ETV
attr interpolationmode none
attr source stateChanged
attr title "contention state, vector"
vector 408 World.node[27].wlan[0].mac.hcf.edca.edcaf[1].contention state:vector ETV
attr interpolationmode none
attr source stateChanged
attr title "contention state, vector"
vector 409 World.node[27].wlan[0].mac.hcf.edca.edcaf[2].contention state:vector ETV
attr interpolationmode none
attr source stateChanged
attr title "contention state, vector"
vector 410 World.node[27].wlan[0].mac.hcf.edca.edcaf[3].contention state:vector ETV
attr interpolationmode none
attr source stateChanged
attr title "contention state, vector"
vector 411 World.node[27].wlan[0].mac rcvdPkFromLL:vector(packetBytes) ETV
attr interpolationmode none
attr source packetReceivedFromLower
attr title "packets received from lower layer, vector(packetBytes)"
vector 412 World.node[27].wlan[0].mac passedUpPk:vector(packetBytes) ETV
attr interpolationmode none
attr source packetSentToUpper
attr title "packets passed to higher layer, vector(packetBytes)"
vector 413 World.node[27].wlan[0].mac rcvdPkFromHL:vector(packetBytes) ETV
attr interpolationmode none
attr source packetReceivedFromUpper
attr title "packets received from higher layer, vector(packetBytes)"
vector 414 World.node[27].wlan[0].mac sentDownPk:vector(packetBytes) ETV
attr interpolationmode none
attr source packetSentToLower
attr title "packets sent to lower layer, vector(packetBytes)"
vector 415 World.node[27].wlan[0].radio transmissionState:vector ETV
attr interpolationmode sample-hold
attr source transmissionStateChanged
attr title "Radio transmission state, vector"
vector 416 World.node[22].wlan[0].mac rcvdPkFromLL:vector(packetBytes) ETV
attr interpolationmode none
attr source packetReceivedFromLower
attr title "packets received from lower layer, vector(packetBytes)"
vector 417 World.node[22].wlan[0].mac passedUpPk:vector(packetBytes) ETV
attr interpolationmode none
attr source packetSentToUpper
attr title "packets passed to higher layer, vector(packetBytes)"
vector 418 World.node[28] posX:vector ETV
attr source xCoord(mobilityPos(mobilityStateChanged))
vector 419 World.node[28] posY:vector ETV
attr source yCoord(mobilityPos(mobilityStateChanged))
vector 420 World.node[28].wlan[0].radio radioMode:vector ETV
attr interpolationmode sample-hold
attr source radioModeChanged
attr title "Radio mode, vector"
vector 421 World.node[28].wlan[0].radio radioChannel:vector ETV
attr interpolationmode sample-hold
attr source radioChannelChanged
attr title "Radio channel, vector"
vector 422 World.node[28].wlan[0].radio receptionState:vector ETV
attr interpolationmode sample-hold
attr source receptionStateChanged
attr title "Radio reception state, vector"
vector 423 World.node[28].wlan[0].mac.dcf.channelAccess.contention state:vector ETV
attr interpolationmode none
attr source stateChanged
attr title "contention state, vector"
vector 424 World.node[28].wlan[0].mac.hcf.edca.edcaf[0].contention state:vector ETV
attr interpolationmode none
attr source stateChanged
attr title "contention state, vector"
vector 425 World.node[28].wlan[0].mac.hcf.edca.edcaf[1].contention state:vector ETV
attr interpolationmode none
attr source stateChanged
attr title "contention state, vector"
vector 426 World.node[28].wlan[0].mac.hcf.edca.edcaf[2].contention state:vector ETV
attr interpolationmode none
attr source stateChanged
attr title "contention state, vector"
vector 427 World.node[28].wlan[0].mac.hcf.edca.edcaf[3].contention state:vector ETV
attr interpolationmode none
attr source stateChanged
attr title "contention state, vector"
vector 428 World.node[29] posX:vector ETV
attr source xCoord(mobilityPos(mobilityStateChanged))
vector 429 World.node[29] posY:vector ETV
attr source yCoord(mobilityPos(mobilityStateChanged))
vector 430 World.node[29].wlan[0].radio radioMode:vector ETV
attr interpolationmode sample-hold
attr source radioModeChanged
attr title "Radio mode, vector"
vector 431 World.node[29].wlan[0].radio radioChannel:vector ETV
attr interpolationmode sample-hold
attr source radioChannelChanged
attr title "Radio channel, vector"
vector 432 World.node[29].wlan[0].radio receptionState:vector ETV
attr interpolationmode sample-hold
attr source receptionStateChanged
attr title "Radio reception state, vector"
vector 433 World.node[29].wlan[0].mac.dcf.channelAccess.contention state:vector ETV
attr interpolationmode none
attr source stateChanged
attr title "contention state, vector"
vector 434 World.node[29].wlan[0].mac.hcf.edca.edcaf[0].contention state:vector ETV
attr interpolationmode none
attr source stateChanged
attr title "contention state, vector"
vector 435 World.node[29].wlan[0].mac.hcf.edca.edcaf[1].contention state:vector ETV
attr interpolationmode none
attr source stateChanged
attr title "contention state, vector"
vector 436 World.node[29].wlan[0].mac.hcf.edca.edcaf[2].contention state:vector ETV
attr interpolationmode none
attr source stateChanged
attr title "contention state, vector"
vector 437 World.node[29].wlan[0].mac.hcf.edca.edcaf[3].contention state:vector ETV
attr interpolationmode none
attr source stateChanged
attr title "contention state, vector"
vector 438 World.node[29].wlan[0].mac rcvdPkFromLL:vector(packetBytes) ETV
attr interpolationmode none
attr source packetReceivedFromLower
attr title "packets received from lower layer, vector(packetBytes)"
vector 439 World.node[29].wlan[0].mac passedUpPk:vector(packetBytes) ETV
attr interpolationmode none
attr source packetSentToUpper
attr title "packets passed to higher layer, vector(packetBytes)"
vector 440 World.node[28].wlan[0].mac rcvdPkFromLL:vector(packetBytes) ETV
attr interpolationmode none
attr source packetReceivedFromLower
attr title "packets received from lower layer, vector(packetBytes)"
vector 441 World.node[28].wlan[0].mac passedUpPk:vector(packetBytes) ETV
attr interpolationmode none
attr source packetSentToUpper
attr title "packets passed to higher layer, vector(packetBytes)"
vector 442 World.node[29].wlan[0].mac rcvdPkFromHL:vector(packetBytes) ETV
attr interpolationmode none
attr source packetReceivedFromUpper
attr title "packets received from higher layer, vector(packetBytes)"
vector 443 World.node[29].wlan[0].mac sentDownPk:vector(packetBytes) ETV
attr interpolationmode none
attr source packetSentToLower
attr title "packets sent to lower layer, vector(packetBytes)"
vector 444 World.node[29].wlan[0].radio transmissionState:vector ETV
attr interpolationmode sample-hold
attr source transmissionStateChanged
attr title "Radio transmission state, vector"
vector 445 World.node[28].wlan[0].mac rcvdPkFromHL:vector(packetBytes) ETV
attr interpolationmode none
attr source packetReceivedFromUpper
attr title "packets received from higher layer, vector(packetBytes)"
vector 446 World.node[28].wlan[0].mac sentDownPk:vector(packetBytes) ETV
attr interpolationmode none
attr source packetSentToLower
attr title "packets sent to lower layer, vector(packetBytes)"
vector 447 World.node[28].wlan[0].radio transmissionState:vector ETV
attr interpolationmode sample-hold
attr source transmissionStateChanged
attr title "Radio transmission state, vector"
vector 448 World.node[24].wlan[0].mac rcvdPkFromLL:vector(packetBytes) ETV
attr interpolationmode none
attr source packetReceivedFromLower
attr title "packets received from lower layer, vector(packetBytes)"
vector 449 World.node[24].wlan[0].mac passedUpPk:vector(packetBytes) ETV
attr interpolationmode none
attr source packetSentToUpper
attr title "packets passed to higher layer, vector(packetBytes)"
vector 450 World.node[30] posX:vector ETV
attr source xCoord(mobilityPos(mobilityStateChanged))
vector 451 World.node[30] posY:vector ETV
attr source yCoord(mobilityPos(mobilityStateChanged))
vector 452 World.node[30].wlan[0].radio radioMode:vector ETV
attr interpolationmode sample-hold
attr source radioModeChanged
attr title "Radio mode, vector"
vector 453 World.node[30].wlan[0].radio radioChannel:vector ETV
attr interpolationmode sample-hold
attr source radioChannelChanged
attr title "Radio channel, vector"
vector 454 World.node[30].wlan[0].radio receptionState:vector ETV
attr interpolationmode sample-hold
attr source receptionStateChanged
attr title "Radio reception state, vector"
vector 455 World.node[30].wlan[0].mac.dcf.channelAccess.contention state:vector ETV
attr interpolationmode none
attr source stateChanged
attr title "contention state, vector"
vector 456 World.node[30].wlan[0].mac.hcf.edca.edcaf[0].contention state:vector ETV
attr interpolationmode none
attr source stateChanged
attr title "contention state, vector"
vector 457 World.node[30].wlan[0].mac.hcf.edca.edcaf[1].contention state:vector ETV
attr interpolationmode none
attr source stateChanged
attr title "contention state, vector"
vector 458 World.node[30].wlan[0].mac.hcf.edca.edcaf[2].contention state:vector ETV
attr interpolationmode none
attr source stateChanged
attr title "contention state, vector"
vector 459 World.node[30].wlan[0].mac.hcf.edca.edcaf[3].contention state:vector ETV
attr interpolationmode none
attr source stateChanged
attr title "contention state, vector"
vector 460 World.node[30].wlan[0].mac rcvdPkFromLL:vector(packetBytes) ETV
attr interpolationmode none
attr source packetReceivedFromLower
[...]
1406	140462678 33 3869829 3869829 67.998745584977 67.998745584977 1 124 124 124 15376
1407	140462711 124 3869830 3869949 67.998745584977 67.998961584977 4 0 2 4 6
1410	140462835 62 3854036 3854280 67.902816360747 67.903296360747 2 2 3 5 13
1412	140462897 186 3854036 3856864 67.902816360747 67.915761061649 6 0 3 9 21
1413	140463083 372 3854036 3856864 67.902816360747 67.915761061649 12 0 0 0 0
1414	140463455 372 3854036 3856864 67.902816360747 67.915761061649 12 0 0 0 0
1415	140463827 496 3854032 3856864 67.902816360747 67.915761061649 16 0 2 4 8
1416	140464323 372 3854036 3856864 67.902816360747 67.915761061649 12 0 0 0 0
1417	140464695 372 3854036 3856864 67.902816360747 67.915761061649 12 0 0 0 0
1420	140465067 62 3854590 3854710 67.907398970029 67.907878970029 2 2 3 5 13
1422	140465129 310 3854590 3869356 67.907398970029 67.997349583142 10 0 3 17 41
1423	140465439 620 3854590 3869356 67.907398970029 67.997349583142 20 0 0 0 0
1424	140466059 620 3854590 3869356 67.907398970029 67.997349583142 20 0 0 0 0
1425	140466679 744 3854586 3869356 67.907398970029 67.997349583142 24 0 2 4 8
1426	140467423 620 3854590 3869356 67.907398970029 67.997349583142 20 0 0 0 0
1427	140468043 620 3854590 3869356 67.907398970029 67.997349583142 20 0 0 0 0
1428	140468663 66 3855118 3856865 67.909978734226 67.915761061649 2 124 323 447 119705
1429	140468729 66 3855118 3856865 67.909978734226 67.915761061649 2 124 323 447 119705
1430	140468795 132 3858255 3869357 67.923196445078 67.997349583142 4 323 323 1292 417316
1431	140468927 132 3858255 3869357 67.923196445078 67.997349583142 4 323 323 1292 417316
1432	140469059 33 3854032 3854032 67.902816360747 67.902816360747 1 323 323 323 104329
1433	140469092 33 3854035 3854035 67.902816360747 67.902816360747 1 323 323 323 104329
1434	140469125 124 3854036 3854280 67.902816360747 67.903296360747 4 0 2 4 6
1435	140469249 33 3854586 3854586 67.907398970029 67.907398970029 1 323 323 323 104329
1436	140469282 33 3854589 3854589 67.907398970029 67.907398970029 1 323 323 323 104329
1437	140469315 124 3854590 3854710 67.907398970029 67.907878970029 4 0 2 4 6
1442	140469439 679 3853745 3868205 67.901810567474 67.992630766374 22 1 3 43 105
1443	140470118 1358 3853745 3868205 67.901810567474 67.992630766374 44 0 0 0 0
1444	140471476 1358 3853745 3868205 67.901810567474 67.992630766374 44 0 0 0 0
1445	140472834 1358 3853745 3868205 67.901810567474 67.992630766374 44 0 0 0 0
1446	140474192 1358 3853745 3868205 67.901810567474 67.992630766374 44 0 0 0 0
1447	140475550 1358 3853745 3868205 67.901810567474 67.992630766374 44 0 0 0 0
1450	140476908 62 3862191 3862310 67.950765803526 67.950981803526 2 2 3 5 13
1452	140476970 62 3862191 3862310 67.950765803526 67.950981803526 2 0 1 1 1
1453	140477032 124 3862191 3862310 67.950765803526 67.950981803526 4 0 0 0 0
1454	140477156 248 3862187 3862310 67.950765803526 67.950981803526 8 0 2 4 8
1455	140477404 124 3862191 3862310 67.950765803526 67.950981803526 4 0 0 0 0
1456	140477528 124 3862191 3862310 67.950765803526 67.950981803526 4 0 0 0 0
1457	140477652 124 3862191 3862310 67.950765803526 67.950981803526 4 0 0 0 0
1460	140477776 329 3853920 3868206 67.902026567474 67.992630766374 10 124 323 2633 776431
1461	140478105 329 3853920 3868206 67.902026567474 67.992630766374 10 124 323 2633 776431
1462	140478434 33 3862187 3862187 67.950765803526 67.950765803526 1 124 124 124 15376
1463	140478467 33 3862190 3862190 67.950765803526 67.950765803526 1 124 124 124 15376
1464	140478500 124 3862191 3862310 67.950765803526 67.950981803526 4 0 2 4 6
1472	140478624 124 3868649 3869671 67.996574190526 67.998683550881 4 1 3 8 20
1473	140478748 248 3868649 3869671 67.996574190526 67.998683550881 8 0 0 0 0
1474	140478996 248 3868649 3869671 67.996574190526 67.998683550881 8 0 0 0 0
1475	140479244 248 3868649 3869671 67.996574190526 67.998683550881 8 0 0 0 0
1476	140479492 248 3868649 3869671 67.996574190526 67.998683550881 8 0 0 0 0
1477	140479740 248 3868649 3869671 67.996574190526 67.998683550881 8 0 0 0 0
1480	140479988 62 3863393 3863512 67.955441158405 67.955657158405 2 2 3 5 13
1482	140480050 62 3863393 3863512 67.955441158405 67.955657158405 2 0 1 1 1
1483	140480112 124 3863393 3863512 67.955441158405 67.955657158405 4 0 0 0 0
1484	140480236 248 3863389 3863512 67.955441158405 67.955657158405 8 0 2 4 8
1485	140480484 124 3863393 3863512 67.955441158405 67.955657158405 4 0 0 0 0
1486	140480608 124 3863393 3863512 67.955441158405 67.955657158405 4 0 0 0 0
1487	140480732 124 3863393 3863512 67.955441158405 67.955657158405 4 0 0 0 0
1488	140480856 66 3869051 3869672 67.997054190526 67.998683550881 2 124 323 447 119705
1489	140480922 66 3869051 3869672 67.997054190526 67.998683550881 2 124 323 447 119705
1492	140480988 33 3863389 3863389 67.955441158405 67.955441158405 1 124 124 124 15376
1493	140481021 33 3863392 3863392 67.955441158405 67.955441158405 1 124 124 124 15376
1494	140481054 124 3863393 3863512 67.955441158405 67.955657158405 4 0 2 4 6
1502	140481178 372 3854594 3869371 67.907399193002 67.997349607364 12 1 3 24 60
1503	140481550 744 3854594 3869371 67.907399193002 67.997349607364 24 0 0 0 0
1504	140482294 744 3854594 3869371 67.907399193002 67.997349607364 24 0 0 0 0
1505	140483038 744 3854594 3869371 67.907399193002 67.997349607364 24 0 0 0 0
1506	140483782 744 3854594 3869371 67.907399193002 67.997349607364 24 0 0 0 0
1507	140484526 744 3854594 3869371 67.907399193002 67.997349607364 24 0 0 0 0
1510	140485270 62 3863917 3864036 67.959055312304 67.959535312304 2 2 3 5 13
1512	140485332 618 3853733 3866403 67.901810106198 67.979235224941 20 0 3 37 91
1513	140485950 1236 3853733 3866403 67.901810106198 67.979235224941 40 0 0 0 0
1514	140487186 1236 3853733 3866403 67.901810106198 67.979235224941 40 0 0 0 0
1515	140488422 1360 3853733 3866403 67.901810106198 67.979235224941 44 0 2 4 8
1516	140489782 1236 3853733 3866403 67.901810106198 67.979235224941 40 0 0 0 0
1517	140491018 1236 3853733 3866403 67.901810106198 67.979235224941 40 0 0 0 0
1518	140492254 198 3854722 3869372 67.907879193002 67.997349607364 6 323 323 1938 625974
1519	140492452 198 3854722 3869372 67.907879193002 67.997349607364 6 323 323 1938 625974
1520	140492650 296 3853860 3866404 67.902026106198 67.979235224941 9 124 323 2509 761055
1521	140492946 296 3853860 3866404 67.902026106198 67.979235224941 9 124 323 2509 761055
1525	140493242 33 3863913 3863913 67.959055312304 67.959055312304 1 323 323 323 104329
1526	140493275 33 3863916 3863916 67.959055312304 67.959055312304 1 323 323 323 104329
1527	140493308 124 3863917 3864036 67.959055312304 67.959535312304 4 0 2 4 6
1532	140493432 62 3862193 3862311 67.950765958539 67.950981958539 2 1 3 4 10
1533	140493494 124 3862193 3862311 67.950765958539 67.950981958539 4 0 0 0 0
1534	140493618 124 3862193 3862311 67.950765958539 67.950981958539 4 0 0 0 0
1535	140493742 124 3862193 3862311 67.950765958539 67.950981958539 4 0 0 0 0
1536	140493866 124 3862193 3862311 67.950765958539 67.950981958539 4 0 0 0 0
1537	140493990 124 3862193 3862311 67.950765958539 67.950981958539 4 0 0 0 0
1542	140494114 372 3857114 3869210 67.917571237314 67.997340039135 12 1 3 24 60
1543	140494486 744 3857114 3869210 67.917571237314 67.997340039135 24 0 0 0 0
1544	140495230 744 3857114 3869210 67.917571237314 67.997340039135 24 0 0 0 0
1545	140495974 744 3857114 3869210 67.917571237314 67.997340039135 24 0 0 0 0
1546	140496718 744 3857114 3869210 67.917571237314 67.997340039135 24 0 0 0 0
1547	140497462 744 3857114 3869210 67.917571237314 67.997340039135 24 0 0 0 0
1548	140498206 198 3857404 3869211 67.918051237314 67.997340039135 6 124 323 1540 448068
1549	140498404 198 3857404 3869211 67.918051237314 67.997340039135 6 124 323 1540 448068
1550	140498602 33 3862312 3862312 67.950981958539 67.950981958539 1 124 124 124 15376
1551	140498635 33 3862312 3862312 67.950981958539 67.950981958539 1 124 124 124 15376
1562	140498668 62 3863395 3863513 67.955441171839 67.955657171839 2 1 3 4 10
1563	140498730 124 3863395 3863513 67.955441171839 67.955657171839 4 0 0 0 0
1564	140498854 124 3863395 3863513 67.955441171839 67.955657171839 4 0 0 0 0
1565	140498978 124 3863395 3863513 67.955441171839 67.955657171839 4 0 0 0 0
1566	140499102 124 3863395 3863513 67.955441171839 67.955657171839 4 0 0 0 0
1567	140499226 124 3863395 3863513 67.955441171839 67.955657171839 4 0 0 0 0
1572	140499350 62 3860583 3860879 67.941518630728 67.941734630728 2 1 3 4 10
1573	140499412 124 3860583 3860879 67.941518630728 67.941734630728 4 0 0 0 0
1574	140499536 124 3860583 3860879 67.941518630728 67.941734630728 4 0 0 0 0
1575	140499660 124 3860583 3860879 67.941518630728 67.941734630728 4 0 0 0 0
1576	140499784 124 3860583 3860879 67.941518630728 67.941734630728 4 0 0 0 0
1577	140499908 124 3860583 3860879 67.941518630728 67.941734630728 4 0 0 0 0
1578	140500032 33 3860880 3860880 67.941734630728 67.941734630728 1 124 124 124 15376
1579	140500065 33 3860880 3860880 67.941734630728 67.941734630728 1 124 124 124 15376
1580	140500098 33 3863514 3863514 67.955657171839 67.955657171839 1 124 124 124 15376
1581	140500131 33 3863514 3863514 67.955657171839 67.955657171839 1 124 124 124 15376
1590	140500164 62 3862441 3862560 67.952095980197 67.952575980197 2 2 3 5 13
1592	140500226 620 3853736 3866408 67.901810157933 67.979235253184 20 0 3 36 86
1593	140500846 1240 3853736 3866408 67.901810157933 67.979235253184 40 0 0 0 0
1594	140502086 1240 3853736 3866408 67.901810157933 67.979235253184 40 0 0 0 0
1595	140503326 1364 3853736 3866408 67.901810157933 67.979235253184 44 0 2 4 8
1596	140504690 1240 3853736 3866408 67.901810157933 67.979235253184 40 0 0 0 0
1597	140505930 1240 3853736 3866408 67.901810157933 67.979235253184 40 0 0 0 0
1600	140507170 62 3858705 3858949 67.929751200206 67.930231200206 2 2 3 5 13
1602	140507232 496 3853732 3864042 67.901810054636 67.959535490116 16 0 3 29 71
1603	140507728 992 3853732 3864042 67.901810054636 67.959535490116 32 0 0 0 0
1604	140508720 992 3853732 3864042 67.901810054636 67.959535490116 32 0 0 0 0
1605	140509712 1116 3853732 3864042 67.901810054636 67.959535490116 36 0 2 4 8
1606	140510828 992 3853732 3864042 67.901810054636 67.959535490116 32 0 0 0 0
1607	140511820 992 3853732 3864042 67.901810054636 67.959535490116 32 0 0 0 0
1608	140512812 231 3853855 3864043 67.902026054636 67.959535490116 7 124 323 1863 552397
1609	140513043 231 3853855 3864043 67.902026054636 67.959535490116 7 124 323 1863 552397
1610	140513274 264 3853875 3866409 67.902026157933 67.979235253184 8 124 323 2186 656726
1611	140513538 264 3853875 3866409 67.902026157933 67.979235253184 8 124 323 2186 656726
1612	140513802 33 3858701 3858701 67.929751200206 67.929751200206 1 323 323 323 104329
1613	140513835 33 3858704 3858704 67.929751200206 67.929751200206 1 323 323 323 104329
1614	140513868 124 3858705 3858949 67.929751200206 67.930231200206 4 0 2 4 6
1615	140513992 33 3862437 3862437 67.952095980197 67.952095980197 1 323 323 323 104329
1616	140514025 33 3862440 3862440 67.952095980197 67.952095980197 1 323 323 323 104329
1617	140514058 124 3862441 3862560 67.952095980197 67.952575980197 4 0 2 4 6
1622	140514182 186 3857115 3869215 67.917571702319 67.997340611867 6 1 3 12 30
1623	140514368 372 3857115 3869215 67.917571702319 67.997340611867 12 0 0 0 0
1624	140514740 372 3857115 3869215 67.917571702319 67.997340611867 12 0 0 0 0
1625	140515112 372 3857115 3869215 67.917571702319 67.997340611867 12 0 0 0 0
1626	140515484 372 3857115 3869215 67.917571702319 67.997340611867 12 0 0 0 0
1627	140515856 372 3857115 3869215 67.917571702319 67.997340611867 12 0 0 0 0
1628	140516228 99 3857409 3869216 67.918051702319 67.997340611867 3 124 323 770 224034
1629	140516327 99 3857409 3869216 67.918051702319 67.997340611867 3 124 323 770 224034
1633	140516426 33 3860314 3860314 67.939306840213 67.939306840213 1 124 124 124 15376
1634	140516459 33 3860314 3860314 67.939306840213 67.939306840213 1 124 124 124 15376
1639	140516492 62 3860582 3860874 67.941518547183 67.941734547183 2 1 3 4 10
1640	140516554 124 3860582 3860874 67.941518547183 67.941734547183 4 0 0 0 0
1641	140516678 124 3860582 3860874 67.941518547183 67.941734547183 4 0 0 0 0
1642	140516802 124 3860582 3860874 67.941518547183 67.941734547183 4 0 0 0 0
1643	140516926 124 3860582 3860874 67.941518547183 67.941734547183 4 0 0 0 0
1644	140517050 124 3860582 3860874 67.941518547183 67.941734547183 4 0 0 0 0
1647	140517174 62 3860183 3860302 67.939090579795 67.939306579795 2 2 3 5 13
1649	140517236 184 3857118 3869230 67.917571808766 67.99734071914 6 0 3 9 21
1650	140517420 368 3857118 3869230 67.917571808766 67.99734071914 12 0 0 0 0
1651	140517788 492 3857118 3869230 67.917571808766 67.99734071914 16 0 2 4 8
1652	140518280 368 3857118 3869230 67.917571808766 67.99734071914 12 0 0 0 0
1653	140518648 368 3857118 3869230 67.917571808766 67.99734071914 12 0 0 0 0
1654	140519016 368 3857118 3869230 67.917571808766 67.99734071914 12 0 0 0 0
1655	140519384 33 3860875 3860875 67.941734547183 67.941734547183 1 124 124 124 15376
1656	140519417 33 3860875 3860875 67.941734547183 67.941734547183 1 124 124 124 15376
1657	140519450 65 3857424 3869231 67.918051808766 67.99734071914 2 323 323 646 208658
1658	140519515 65 3857424 3869231 67.918051808766 67.99734071914 2 323 323 646 208658
1659	140519580 33 3860179 3860179 67.939090579795 67.939090579795 1 124 124 124 15376
1660	140519613 33 3860182 3860182 67.939090579795 67.939090579795 1 124 124 124 15376
1661	140519646 124 3860183 3860302 67.939090579795 67.939306579795 4 0 2 4 6
1667	140519770 60 3861618 3861737 67.94695125781 67.94743125781 2 2 3 5 13
1669	140519830 432 3853735 3864047 67.901810148293 67.959535532345 14 0 3 25 61
1670	140520262 864 3853735 3864047 67.901810148293 67.959535532345 28 0 0 0 0
1671	140521126 864 3853735 3864047 67.901810148293 67.959535532345 28 0 0 0 0
1672	140521990 984 3853735 3864047 67.901810148293 67.959535532345 32 0 2 4 8
1673	140522974 864 3853735 3864047 67.901810148293 67.959535532345 28 0 0 0 0
1674	140523838 864 3853735 3864047 67.901810148293 67.959535532345 28 0 0 0 0
1677	140524702 62 3862744 3862863 67.952855729455 67.953335729455 2 2 3 5 13
1679	140524764 1052 3853741 3868155 67.901810518232 67.992630476823 34 0 3 65 161
1680	140525816 2104 3853741 3868155 67.901810518232 67.992630476823 68 0 0 0 0
1681	140527920 2104 3853741 3868155 67.901810518232 67.992630476823 68 0 0 0 0
1682	140530024 2228 3853741 3868155 67.901810518232 67.992630476823 72 0 2 4 8
1683	140532252 2104 3853741 3868155 67.901810518232 67.992630476823 68 0 0 0 0
1684	140534356 2104 3853741 3868155 67.901810518232 67.992630476823 68 0 0 0 0
1685	140536460 527 3853900 3868156 67.902026518232 67.992630476823 16 124 323 3974 1135546
1686	140536987 527 3853900 3868156 67.902026518232 67.992630476823 16 124 323 3974 1135546
1687	140537514 198 3853870 3864048 67.902026148293 67.959535532345 6 124 323 1739 537021
1688	140537712 198 3853870 3864048 67.902026148293 67.959535532345 6 124 323 1739 537021
1689	140537910 32 3861614 3861614 67.94695125781 67.94695125781 1 323 323 323 104329
1690	140537942 32 3861617 3861617 67.94695125781 67.94695125781 1 323 323 323 104329
1691	140537974 120 3861618 3861737 67.94695125781 67.94743125781 4 0 2 4 6
1692	140538094 33 3862740 3862740 67.952698418801 67.952698418801 1 323 323 323 104329
1693	140538127 33 3862743 3862743 67.952855729455 67.952855729455 1 323 323 323 104329
1694	140538160 124 3862744 3862863 67.952855729455 67.953335729455 4 0 2 4 6
1699	140538284 184 3857117 3869225 67.91757177953 67.997340685448 6 1 3 12 30
1700	140538468 368 3857117 3869225 67.91757177953 67.997340685448 12 0 0 0 0
1701	140538836 368 3857117 3869225 67.91757177953 67.997340685448 12 0 0 0 0
1702	140539204 368 3857117 3869225 67.91757177953 67.997340685448 12 0 0 0 0
1703	140539572 368 3857117 3869225 67.91757177953 67.997340685448 12 0 0 0 0
1704	140539940 368 3857117 3869225 67.91757177953 67.997340685448 12 0 0 0 0
1709	140540308 62 3860581 3860869 67.941518374809 67.941734374809 2 1 3 4 10
1710	140540370 124 3860581 3860869 67.941518374809 67.941734374809 4 0 0 0 0
1711	140540494 124 3860581 3860869 67.941518374809 67.941734374809 4 0 0 0 0
1712	140540618 124 3860581 3860869 67.941518374809 67.941734374809 4 0 0 0 0
1713	140540742 124 3860581 3860869 67.941518374809 67.941734374809 4 0 0 0 0
1714	140540866 124 3860581 3860869 67.941518374809 67.941734374809 4 0 0 0 0
1715	140540990 33 3860870 3860870 67.941734374809 67.941734374809 1 124 124 124 15376
1716	140541023 33 3860870 3860870 67.941734374809 67.941734374809 1 124 124 124 15376
1717	140541056 98 3857419 3869226 67.91805177953 67.997340685448 3 124 323 770 224034
1718	140541154 98 3857419 3869226 67.91805177953 67.997340685448 3 124 323 770 224034
1729	140541252 246 3855014 3868522 67.909747992049 67.995760203623 8 1 3 15 35
1730	140541498 492 3855014 3868522 67.909747992049 67.995760203623 16 0 0 0 0
1731	140541990 492 3855014 3868522 67.909747992049 67.995760203623 16 0 0 0 0
1732	140542482 492 3855014 3868522 67.909747992049 67.995760203623 16 0 0 0 0
1733	140542974 492 3855014 3868522 67.909747992049 67.995760203623 16 0 0 0 0
1734	140543466 492 3855014 3868522 67.909747992049 67.995760203623 16 0 0 0 0
1735	140543958 98 3857238 3868523 67.917957457779 67.995760203623 3 124 323 770 224034
1736	140544056 98 3857238 3868523 67.917957457779 67.995760203623 3 124 323 770 224034
1742	140544154 62 3856399 3856518 67.914961726498 67.915441726498 2 2 3 5 13
1744	140544216 804 3853738 3868165 67.901810479105 67.992630530116 26 0 3 49 121
1745	140545020 1608 3853738 3868165 67.901810479105 67.992630530116 52 0 0 0 0
1746	140546628 1608 3853738 3868165 67.901810479105 67.992630530116 52 0 0 0 0
1747	140548236 1732 3853738 3868165 67.901810479105 67.992630530116 56 0 2 4 8
1748	140549968 1608 3853738 3868165 67.901810479105 67.992630530116 52 0 0 0 0
1749	140551576 1608 3853738 3868165 67.901810479105 67.992630530116 52 0 0 0 0
1752	140553184 60 3860579 3860868 67.94151833544 67.94173433544 2 2 3 5 13
1754	140553244 60 3860579 3860868 67.94151833544 67.94173433544 2 0 1 1 1
1755	140553304 120 3860579 3860868 67.94151833544 67.94173433544 4 0 0 0 0
1756	140553424 240 3860575 3860868 67.94151833544 67.94173433544 8 0 2 4 8
1757	140553664 120 3860579 3860868 67.94151833544 67.94173433544 4 0 0 0 0
1758	140553784 120 3860579 3860868 67.94151833544 67.94173433544 4 0 0 0 0
1759	140553904 120 3860579 3860868 67.94151833544 67.94173433544 4 0 0 0 0
1762	140554024 62 3866798 3866917 67.982288053283 67.982768053283 2 2 3 5 13
1764	140554086 62 3866798 3866917 67.982288053283 67.982768053283 2 0 1 1 1
1765	140554148 124 3866798 3866917 67.982288053283 67.982768053283 4 0 0 0 0
1766	140554272 124 3866798 3866917 67.982288053283 67.982768053283 4 0 0 0 0
1767	140554396 248 3866794 3866917 67.982288053283 67.982768053283 8 0 2 4 8
1768	140554644 124 3866798 3866917 67.982288053283 67.982768053283 4 0 0 0 0
1769	140554768 124 3866798 3866917 67.982288053283 67.982768053283 4 0 0 0 0
1772	140554892 395 3853885 3868166 67.902026479105 67.992630530116 12 124 323 3279 985089
1773	140555287 395 3853885 3868166 67.902026479105 67.992630530116 12 124 323 3279 985089
1776	140555682 33 3856395 3856395 67.914961726498 67.914961726498 1 323 323 323 104329
1777	140555715 33 3856398 3856398 67.914961726498 67.914961726498 1 323 323 323 104329
1778	140555748 124 3856399 3856518 67.914961726498 67.915441726498 4 0 2 4 6
1779	140555872 32 3860575 3860575 67.94151833544 67.94151833544 1 124 124 124 15376
1780	140555904 32 3860578 3860578 67.94151833544 67.94151833544 1 124 124 124 15376
1781	140555936 120 3860579 3860868 67.94151833544 67.94173433544 4 0 2 4 6
1782	140556056 33 3866794 3866794 67.982288053283 67.982288053283 1 323 323 323 104329
1783	140556089 33 3866797 3866797 67.982288053283 67.982288053283 1 323 323 323 104329
1784	140556122 124 3866798 3866917 67.982288053283 67.982768053283 4 0 2 4 6

